
 Model Input Parameters:  ROMS/TOMS version 3.7  
                          Friday - May 1, 2020 -  3:03:21 AM
 -----------------------------------------------------------------------------

 First LiveOcean input file

 Operating system : Linux
 CPU/hardware     : x86_64
 Compiler system  : ifort
 Compiler command : mpif90
 Compiler flags   : -heap-arrays -fp-model precise -ip -O2 -free -free

 Input Script  : 

 SVN Root URL  : https://www.myroms.org/svn/src/trunk
 SVN Revision  : 

 Local Root    : /gscratch/macc/parker/LiveOcean_roms/LO_ROMS
 Header Dir    : /gscratch/macc/parker/LiveOcean_roms/makefiles/lo8b
 Header file   : lo8b.h
 Analytical Dir: /gscratch/macc/parker/LiveOcean_roms/makefiles/lo8b

 Resolution, Grid 01: 0661x1300x030,  Parallel Nodes: 196,  Tiling: 014x014


 Physical Parameters, Grid: 01
 =============================

       6480  ntimes            Number of timesteps for 3-D equations.
     40.000  dt                Timestep size (s) for 3-D equations.
         20  ndtfast           Number of timesteps for 2-D equations between
                                 each 3D timestep.
          1  ERstr             Starting ensemble/perturbation run number.
          1  ERend             Ending ensemble/perturbation run number.
          0  nrrec             Number of restart records to read from disk.
          T  LcycleRST         Switch to recycle time-records in restart file.
      21600  nRST              Number of timesteps between the writing of data
                                 into restart fields.
         90  ninfo             Number of timesteps between print of information
                                 to standard output.
          T  ldefout           Switch to create a new output NetCDF file(s).
         90  nHIS              Number of timesteps between the writing fields
                                 into history file.
         90  ndefHIS           Number of timesteps between creation of new
                                 history files.
          0  nQCK              Number of timesteps between the writing fields
                                 into quicksave file.
 2.0000E+00  nl_tnu2(01)       NLM Horizontal, harmonic mixing coefficient
                                 (m2/s) for tracer 01: temp
 2.0000E+00  nl_tnu2(02)       NLM Horizontal, harmonic mixing coefficient
                                 (m2/s) for tracer 02: salt
          F  LuvSponge         Turning OFF sponge on horizontal momentum.
          F  LtracerSponge(01) Turning OFF sponge on tracer 01: temp
          F  LtracerSponge(02) Turning OFF sponge on tracer 02: salt
 5.0000E-06  Akt_bak(01)       Background vertical mixing coefficient (m2/s)
                                 for tracer 01: temp
 5.0000E-06  Akt_bak(02)       Background vertical mixing coefficient (m2/s)
                                 for tracer 02: salt
 5.0000E-06  Akv_bak           Background vertical mixing coefficient (m2/s)
                                 for momentum.
 5.0000E-06  Akk_bak           Background vertical mixing coefficient (m2/s)
                                 for turbulent energy.
 5.0000E-06  Akp_bak           Background vertical mixing coefficient (m2/s)
                                 for turbulent generic statistical field.
      3.000  gls_p             GLS stability exponent.
      1.500  gls_m             GLS turbulent kinetic energy exponent.
     -1.000  gls_n             GLS turbulent length scale exponent.
 7.6000E-06  gls_Kmin          GLS minimum value of turbulent kinetic energy.
 1.0000E-12  gls_Pmin          GLS minimum value of dissipation.
 5.4770E-01  gls_cmu0          GLS stability coefficient.
 1.4400E+00  gls_c1            GLS shear production coefficient.
 1.9200E+00  gls_c2            GLS dissipation coefficient.
-4.0000E-01  gls_c3m           GLS stable buoyancy production coefficient.
 1.0000E+00  gls_c3p           GLS unstable buoyancy production coefficient.
 1.0000E+00  gls_sigk          GLS constant Schmidt number for TKE.
 1.3000E+00  gls_sigp          GLS constant Schmidt number for PSI.
   1400.000  charnok_alpha     Charnok factor for Zos calculation.
      0.500  zos_hsig_alpha    Factor for Zos calculation using Hsig(Awave).
      0.250  sz_alpha          Factor for Wave dissipation surface tke flux .
    100.000  crgban_cw         Factor for Craig/Banner surface tke flux.
 3.0000E-04  rdrg              Linear bottom drag coefficient (m/s).
 3.0000E-03  rdrg2             Quadratic bottom drag coefficient.
 2.0000E-02  Zob               Bottom roughness (m).
 2.0000E-02  Zos               Surface roughness (m).
 2.0000E+00  blk_ZQ            Height (m) of surface air humidity measurement.
 2.0000E+00  blk_ZT            Height (m) of surface air temperature measurement.
 1.0000E+01  blk_ZW            Height (m) of surface winds measurement.
          5  lmd_Jwt           Jerlov water type.
          2  Vtransform        S-coordinate transformation equation.
          4  Vstretching       S-coordinate stretching function.
 4.0000E+00  theta_s           S-coordinate surface control parameter.
 2.0000E+00  theta_b           S-coordinate bottom  control parameter.
     10.000  Tcline            S-coordinate surface/bottom layer width (m) used
                                 in vertical coordinate stretching.
   1023.700  rho0              Mean density (kg/m3) for Boussinesq approximation.
  18383.000  dstart            Time-stamp assigned to model initialization (days).
   8035.000  tide_start        Reference time origin for tidal forcing (days).
19700101.00  time_ref          Reference time for units attribute (yyyymmdd.dd)
 3.0000E+00  Tnudg(01)         Nudging/relaxation time scale (days)
                                 for tracer 01: temp
 3.0000E+00  Tnudg(02)         Nudging/relaxation time scale (days)
                                 for tracer 02: salt
 3.0000E+00  Znudg             Nudging/relaxation time scale (days)
                                 for free-surface.
 3.0000E+00  M2nudg            Nudging/relaxation time scale (days)
                                 for 2D momentum.
 3.0000E+00  M3nudg            Nudging/relaxation time scale (days)
                                 for 3D momentum.
 4.0000E+00  obcfac            Factor between passive and active
                                 open boundary conditions.
          F  VolCons(1)        NLM western  edge boundary volume conservation.
          F  VolCons(2)        NLM southern edge boundary volume conservation.
          F  VolCons(3)        NLM eastern  edge boundary volume conservation.
          F  VolCons(4)        NLM northern edge boundary volume conservation.
     10.000  T0                Background potential temperature (C) constant.
     35.000  S0                Background salinity (PSU) constant.
     -1.000  gamma2            Slipperiness variable: free-slip (1.0) or 
                                                      no-slip (-1.0).
          T  LuvSrc            Turning ON  momentum point Sources/Sinks.
          F  LwSrc             Turning OFF volume influx point Sources/Sinks.
          T  LtracerSrc(01)    Turning ON  point Sources/Sinks on tracer 01: temp
          T  LtracerSrc(02)    Turning ON  point Sources/Sinks on tracer 02: salt
          T  LsshCLM           Turning ON  processing of SSH climatology.
          T  Lm2CLM            Turning ON  processing of 2D momentum climatology.
          T  Lm3CLM            Turning ON  processing of 3D momentum climatology.
          T  LtracerCLM(01)    Turning ON  processing of climatology tracer 01: temp
          T  LtracerCLM(02)    Turning ON  processing of climatology tracer 02: salt
          T  LnudgeM2CLM       Turning ON  nudging of 2D momentum climatology.
          T  LnudgeM3CLM       Turning ON  nudging of 3D momentum climatology.
          T  LnudgeTCLM(01)    Turning ON  nudging of climatology tracer 01: temp
          T  LnudgeTCLM(02)    Turning ON  nudging of climatology tracer 02: salt

          T  Hout(idFsur)      Write out free-surface.
          T  Hout(idUbar)      Write out 2D U-momentum component.
          T  Hout(idVbar)      Write out 2D V-momentum component.
          T  Hout(idUvel)      Write out 3D U-momentum component.
          T  Hout(idVvel)      Write out 3D V-momentum component.
          T  Hout(idWvel)      Write out W-momentum component.
          T  Hout(idTvar)      Write out tracer 01: temp
          T  Hout(idTvar)      Write out tracer 02: salt
          T  Hout(idUsms)      Write out surface U-momentum stress.
          T  Hout(idVsms)      Write out surface V-momentum stress.
          T  Hout(idUbms)      Write out bottom U-momentum stress.
          T  Hout(idVbms)      Write out bottom V-momentum stress.
          T  Hout(idPair)      Write out surface air pressure.
          T  Hout(idUair)      Write out surface U-wind component.
          T  Hout(idVair)      Write out surface V-wind component.
          T  Hout(idTsur)      Write out surface net heat flux.
          T  Hout(idTsur)      Write out surface net salt flux.
          T  Hout(idSrad)      Write out shortwave radiation flux.
          T  Hout(idLrad)      Write out longwave radiation flux.
          T  Hout(idLhea)      Write out latent heat flux.
          T  Hout(idShea)      Write out sensible heat flux.
          T  Hout(idDano)      Write out density anomaly.
          T  Hout(idVvis)      Write out vertical viscosity: AKv.
          T  Hout(idSdif)      Write out vertical diffusion: AKt(isalt).

 Output/Input Files:

             Output Restart File:  /gscratch/macc/parker/LiveOcean_roms/output/cas6_v3_lo8b/f2020.05.01/ocean_rst.nc
        Prefix for History Files:  /gscratch/macc/parker/LiveOcean_roms/output/cas6_v3_lo8b/f2020.05.01/ocean_his
                 Input Grid File:  /gscratch/macc/parker/LiveOcean_data/grids/cas6/grid.nc
    Input Nonlinear Initial File:  /gscratch/macc/parker/LiveOcean_roms/output/cas6_v3_lo8b/f2020.04.30/ocean_his_0025.nc
        Input Sources/Sinks File:  /gscratch/macc/parker/LiveOcean_output/cas6_v3/f2020.05.01/riv2/rivers.nc
           Input Forcing File 01:  /gscratch/macc/parker/LiveOcean_output/cas6_v3/f2020.05.01/tide2/tides.nc
           Input Forcing File 02:  /gscratch/macc/parker/LiveOcean_output/cas6_v3/f2020.05.01/atm1/lwrad_down.nc
           Input Forcing File 03:  /gscratch/macc/parker/LiveOcean_output/cas6_v3/f2020.05.01/atm1/Pair.nc
           Input Forcing File 04:  /gscratch/macc/parker/LiveOcean_output/cas6_v3/f2020.05.01/atm1/Qair.nc
           Input Forcing File 05:  /gscratch/macc/parker/LiveOcean_output/cas6_v3/f2020.05.01/atm1/rain.nc
           Input Forcing File 06:  /gscratch/macc/parker/LiveOcean_output/cas6_v3/f2020.05.01/atm1/swrad.nc
           Input Forcing File 07:  /gscratch/macc/parker/LiveOcean_output/cas6_v3/f2020.05.01/atm1/Tair.nc
           Input Forcing File 08:  /gscratch/macc/parker/LiveOcean_output/cas6_v3/f2020.05.01/atm1/Uwind.nc
           Input Forcing File 09:  /gscratch/macc/parker/LiveOcean_output/cas6_v3/f2020.05.01/atm1/Vwind.nc
          Input Climatology File:  /gscratch/macc/parker/LiveOcean_output/cas6_v3/f2020.05.01/ocn4/ocean_clm.nc
   Input Nudge Coefficients File:  /gscratch/macc/parker/LiveOcean_data/grids/cas6/nudgcoef.nc
             Input Boundary File:  /gscratch/macc/parker/LiveOcean_output/cas6_v3/f2020.05.01/ocn4/ocean_bry.nc
         Biology Parameters File:  /gscratch/macc/parker/LiveOcean_roms/output/cas6_v3_lo8b/f2020.05.01/npzd2o_Banas.in

 Tile partition information for Grid 01:  0661x1300x0030  tiling: 014x014

     tile     Istr     Iend     Jstr     Jend     Npts

        0        1       43        1       92   118680
        1       44       91        1       92   132480
        2       92      139        1       92   132480
        3      140      187        1       92   132480
        4      188      235        1       92   132480
        5      236      283        1       92   132480
        6      284      331        1       92   132480
        7      332      379        1       92   132480
        8      380      427        1       92   132480
        9      428      475        1       92   132480
       10      476      523        1       92   132480
       11      524      571        1       92   132480
       12      572      619        1       92   132480
       13      620      661        1       92   115920
       14        1       43       93      185   119970
       15       44       91       93      185   133920
       16       92      139       93      185   133920
       17      140      187       93      185   133920
       18      188      235       93      185   133920
       19      236      283       93      185   133920
       20      284      331       93      185   133920
       21      332      379       93      185   133920
       22      380      427       93      185   133920
       23      428      475       93      185   133920
       24      476      523       93      185   133920
       25      524      571       93      185   133920
       26      572      619       93      185   133920
       27      620      661       93      185   117180
       28        1       43      186      278   119970
       29       44       91      186      278   133920
       30       92      139      186      278   133920
       31      140      187      186      278   133920
       32      188      235      186      278   133920
       33      236      283      186      278   133920
       34      284      331      186      278   133920
       35      332      379      186      278   133920
       36      380      427      186      278   133920
       37      428      475      186      278   133920
       38      476      523      186      278   133920
       39      524      571      186      278   133920
       40      572      619      186      278   133920
       41      620      661      186      278   117180
       42        1       43      279      371   119970
       43       44       91      279      371   133920
       44       92      139      279      371   133920
       45      140      187      279      371   133920
       46      188      235      279      371   133920
       47      236      283      279      371   133920
       48      284      331      279      371   133920
       49      332      379      279      371   133920
       50      380      427      279      371   133920
       51      428      475      279      371   133920
       52      476      523      279      371   133920
       53      524      571      279      371   133920
       54      572      619      279      371   133920
       55      620      661      279      371   117180
       56        1       43      372      464   119970
       57       44       91      372      464   133920
       58       92      139      372      464   133920
       59      140      187      372      464   133920
       60      188      235      372      464   133920
       61      236      283      372      464   133920
       62      284      331      372      464   133920
       63      332      379      372      464   133920
       64      380      427      372      464   133920
       65      428      475      372      464   133920
       66      476      523      372      464   133920
       67      524      571      372      464   133920
       68      572      619      372      464   133920
       69      620      661      372      464   117180
       70        1       43      465      557   119970
       71       44       91      465      557   133920
       72       92      139      465      557   133920
       73      140      187      465      557   133920
       74      188      235      465      557   133920
       75      236      283      465      557   133920
       76      284      331      465      557   133920
       77      332      379      465      557   133920
       78      380      427      465      557   133920
       79      428      475      465      557   133920
       80      476      523      465      557   133920
       81      524      571      465      557   133920
       82      572      619      465      557   133920
       83      620      661      465      557   117180
       84        1       43      558      650   119970
       85       44       91      558      650   133920
       86       92      139      558      650   133920
       87      140      187      558      650   133920
       88      188      235      558      650   133920
       89      236      283      558      650   133920
       90      284      331      558      650   133920
       91      332      379      558      650   133920
       92      380      427      558      650   133920
       93      428      475      558      650   133920
       94      476      523      558      650   133920
       95      524      571      558      650   133920
       96      572      619      558      650   133920
       97      620      661      558      650   117180
       98        1       43      651      743   119970
       99       44       91      651      743   133920
      100       92      139      651      743   133920
      101      140      187      651      743   133920
      102      188      235      651      743   133920
      103      236      283      651      743   133920
      104      284      331      651      743   133920
      105      332      379      651      743   133920
      106      380      427      651      743   133920
      107      428      475      651      743   133920
      108      476      523      651      743   133920
      109      524      571      651      743   133920
      110      572      619      651      743   133920
      111      620      661      651      743   117180
      112        1       43      744      836   119970
      113       44       91      744      836   133920
      114       92      139      744      836   133920
      115      140      187      744      836   133920
      116      188      235      744      836   133920
      117      236      283      744      836   133920
      118      284      331      744      836   133920
      119      332      379      744      836   133920
      120      380      427      744      836   133920
      121      428      475      744      836   133920
      122      476      523      744      836   133920
      123      524      571      744      836   133920
      124      572      619      744      836   133920
      125      620      661      744      836   117180
      126        1       43      837      929   119970
      127       44       91      837      929   133920
      128       92      139      837      929   133920
      129      140      187      837      929   133920
      130      188      235      837      929   133920
      131      236      283      837      929   133920
      132      284      331      837      929   133920
      133      332      379      837      929   133920
      134      380      427      837      929   133920
      135      428      475      837      929   133920
      136      476      523      837      929   133920
      137      524      571      837      929   133920
      138      572      619      837      929   133920
      139      620      661      837      929   117180
      140        1       43      930     1022   119970
      141       44       91      930     1022   133920
      142       92      139      930     1022   133920
      143      140      187      930     1022   133920
      144      188      235      930     1022   133920
      145      236      283      930     1022   133920
      146      284      331      930     1022   133920
      147      332      379      930     1022   133920
      148      380      427      930     1022   133920
      149      428      475      930     1022   133920
      150      476      523      930     1022   133920
      151      524      571      930     1022   133920
      152      572      619      930     1022   133920
      153      620      661      930     1022   117180
      154        1       43     1023     1115   119970
      155       44       91     1023     1115   133920
      156       92      139     1023     1115   133920
      157      140      187     1023     1115   133920
      158      188      235     1023     1115   133920
      159      236      283     1023     1115   133920
      160      284      331     1023     1115   133920
      161      332      379     1023     1115   133920
      162      380      427     1023     1115   133920
      163      428      475     1023     1115   133920
      164      476      523     1023     1115   133920
      165      524      571     1023     1115   133920
      166      572      619     1023     1115   133920
      167      620      661     1023     1115   117180
      168        1       43     1116     1208   119970
      169       44       91     1116     1208   133920
      170       92      139     1116     1208   133920
      171      140      187     1116     1208   133920
      172      188      235     1116     1208   133920
      173      236      283     1116     1208   133920
      174      284      331     1116     1208   133920
      175      332      379     1116     1208   133920
      176      380      427     1116     1208   133920
      177      428      475     1116     1208   133920
      178      476      523     1116     1208   133920
      179      524      571     1116     1208   133920
      180      572      619     1116     1208   133920
      181      620      661     1116     1208   117180
      182        1       43     1209     1300   118680
      183       44       91     1209     1300   132480
      184       92      139     1209     1300   132480
      185      140      187     1209     1300   132480
      186      188      235     1209     1300   132480
      187      236      283     1209     1300   132480
      188      284      331     1209     1300   132480
      189      332      379     1209     1300   132480
      190      380      427     1209     1300   132480
      191      428      475     1209     1300   132480
      192      476      523     1209     1300   132480
      193      524      571     1209     1300   132480
      194      572      619     1209     1300   132480
      195      620      661     1209     1300   115920

 Tile minimum and maximum fractional coordinates for Grid 01:
   (interior points only)

     tile     Xmin     Xmax     Ymin     Ymax     grid

        0     0.50    43.50     0.50    92.50  RHO-points
        1    43.50    91.50     0.50    92.50  RHO-points
        2    91.50   139.50     0.50    92.50  RHO-points
        3   139.50   187.50     0.50    92.50  RHO-points
        4   187.50   235.50     0.50    92.50  RHO-points
        5   235.50   283.50     0.50    92.50  RHO-points
        6   283.50   331.50     0.50    92.50  RHO-points
        7   331.50   379.50     0.50    92.50  RHO-points
        8   379.50   427.50     0.50    92.50  RHO-points
        9   427.50   475.50     0.50    92.50  RHO-points
       10   475.50   523.50     0.50    92.50  RHO-points
       11   523.50   571.50     0.50    92.50  RHO-points
       12   571.50   619.50     0.50    92.50  RHO-points
       13   619.50   661.50     0.50    92.50  RHO-points
       14     0.50    43.50    92.50   185.50  RHO-points
       15    43.50    91.50    92.50   185.50  RHO-points
       16    91.50   139.50    92.50   185.50  RHO-points
       17   139.50   187.50    92.50   185.50  RHO-points
       18   187.50   235.50    92.50   185.50  RHO-points
       19   235.50   283.50    92.50   185.50  RHO-points
       20   283.50   331.50    92.50   185.50  RHO-points
       21   331.50   379.50    92.50   185.50  RHO-points
       22   379.50   427.50    92.50   185.50  RHO-points
       23   427.50   475.50    92.50   185.50  RHO-points
       24   475.50   523.50    92.50   185.50  RHO-points
       25   523.50   571.50    92.50   185.50  RHO-points
       26   571.50   619.50    92.50   185.50  RHO-points
       27   619.50   661.50    92.50   185.50  RHO-points
       28     0.50    43.50   185.50   278.50  RHO-points
       29    43.50    91.50   185.50   278.50  RHO-points
       30    91.50   139.50   185.50   278.50  RHO-points
       31   139.50   187.50   185.50   278.50  RHO-points
       32   187.50   235.50   185.50   278.50  RHO-points
       33   235.50   283.50   185.50   278.50  RHO-points
       34   283.50   331.50   185.50   278.50  RHO-points
       35   331.50   379.50   185.50   278.50  RHO-points
       36   379.50   427.50   185.50   278.50  RHO-points
       37   427.50   475.50   185.50   278.50  RHO-points
       38   475.50   523.50   185.50   278.50  RHO-points
       39   523.50   571.50   185.50   278.50  RHO-points
       40   571.50   619.50   185.50   278.50  RHO-points
       41   619.50   661.50   185.50   278.50  RHO-points
       42     0.50    43.50   278.50   371.50  RHO-points
       43    43.50    91.50   278.50   371.50  RHO-points
       44    91.50   139.50   278.50   371.50  RHO-points
       45   139.50   187.50   278.50   371.50  RHO-points
       46   187.50   235.50   278.50   371.50  RHO-points
       47   235.50   283.50   278.50   371.50  RHO-points
       48   283.50   331.50   278.50   371.50  RHO-points
       49   331.50   379.50   278.50   371.50  RHO-points
       50   379.50   427.50   278.50   371.50  RHO-points
       51   427.50   475.50   278.50   371.50  RHO-points
       52   475.50   523.50   278.50   371.50  RHO-points
       53   523.50   571.50   278.50   371.50  RHO-points
       54   571.50   619.50   278.50   371.50  RHO-points
       55   619.50   661.50   278.50   371.50  RHO-points
       56     0.50    43.50   371.50   464.50  RHO-points
       57    43.50    91.50   371.50   464.50  RHO-points
       58    91.50   139.50   371.50   464.50  RHO-points
       59   139.50   187.50   371.50   464.50  RHO-points
       60   187.50   235.50   371.50   464.50  RHO-points
       61   235.50   283.50   371.50   464.50  RHO-points
       62   283.50   331.50   371.50   464.50  RHO-points
       63   331.50   379.50   371.50   464.50  RHO-points
       64   379.50   427.50   371.50   464.50  RHO-points
       65   427.50   475.50   371.50   464.50  RHO-points
       66   475.50   523.50   371.50   464.50  RHO-points
       67   523.50   571.50   371.50   464.50  RHO-points
       68   571.50   619.50   371.50   464.50  RHO-points
       69   619.50   661.50   371.50   464.50  RHO-points
       70     0.50    43.50   464.50   557.50  RHO-points
       71    43.50    91.50   464.50   557.50  RHO-points
       72    91.50   139.50   464.50   557.50  RHO-points
       73   139.50   187.50   464.50   557.50  RHO-points
       74   187.50   235.50   464.50   557.50  RHO-points
       75   235.50   283.50   464.50   557.50  RHO-points
       76   283.50   331.50   464.50   557.50  RHO-points
       77   331.50   379.50   464.50   557.50  RHO-points
       78   379.50   427.50   464.50   557.50  RHO-points
       79   427.50   475.50   464.50   557.50  RHO-points
       80   475.50   523.50   464.50   557.50  RHO-points
       81   523.50   571.50   464.50   557.50  RHO-points
       82   571.50   619.50   464.50   557.50  RHO-points
       83   619.50   661.50   464.50   557.50  RHO-points
       84     0.50    43.50   557.50   650.50  RHO-points
       85    43.50    91.50   557.50   650.50  RHO-points
       86    91.50   139.50   557.50   650.50  RHO-points
       87   139.50   187.50   557.50   650.50  RHO-points
       88   187.50   235.50   557.50   650.50  RHO-points
       89   235.50   283.50   557.50   650.50  RHO-points
       90   283.50   331.50   557.50   650.50  RHO-points
       91   331.50   379.50   557.50   650.50  RHO-points
       92   379.50   427.50   557.50   650.50  RHO-points
       93   427.50   475.50   557.50   650.50  RHO-points
       94   475.50   523.50   557.50   650.50  RHO-points
       95   523.50   571.50   557.50   650.50  RHO-points
       96   571.50   619.50   557.50   650.50  RHO-points
       97   619.50   661.50   557.50   650.50  RHO-points
       98     0.50    43.50   650.50   743.50  RHO-points
       99    43.50    91.50   650.50   743.50  RHO-points
      100    91.50   139.50   650.50   743.50  RHO-points
      101   139.50   187.50   650.50   743.50  RHO-points
      102   187.50   235.50   650.50   743.50  RHO-points
      103   235.50   283.50   650.50   743.50  RHO-points
      104   283.50   331.50   650.50   743.50  RHO-points
      105   331.50   379.50   650.50   743.50  RHO-points
      106   379.50   427.50   650.50   743.50  RHO-points
      107   427.50   475.50   650.50   743.50  RHO-points
      108   475.50   523.50   650.50   743.50  RHO-points
      109   523.50   571.50   650.50   743.50  RHO-points
      110   571.50   619.50   650.50   743.50  RHO-points
      111   619.50   661.50   650.50   743.50  RHO-points
      112     0.50    43.50   743.50   836.50  RHO-points
      113    43.50    91.50   743.50   836.50  RHO-points
      114    91.50   139.50   743.50   836.50  RHO-points
      115   139.50   187.50   743.50   836.50  RHO-points
      116   187.50   235.50   743.50   836.50  RHO-points
      117   235.50   283.50   743.50   836.50  RHO-points
      118   283.50   331.50   743.50   836.50  RHO-points
      119   331.50   379.50   743.50   836.50  RHO-points
      120   379.50   427.50   743.50   836.50  RHO-points
      121   427.50   475.50   743.50   836.50  RHO-points
      122   475.50   523.50   743.50   836.50  RHO-points
      123   523.50   571.50   743.50   836.50  RHO-points
      124   571.50   619.50   743.50   836.50  RHO-points
      125   619.50   661.50   743.50   836.50  RHO-points
      126     0.50    43.50   836.50   929.50  RHO-points
      127    43.50    91.50   836.50   929.50  RHO-points
      128    91.50   139.50   836.50   929.50  RHO-points
      129   139.50   187.50   836.50   929.50  RHO-points
      130   187.50   235.50   836.50   929.50  RHO-points
      131   235.50   283.50   836.50   929.50  RHO-points
      132   283.50   331.50   836.50   929.50  RHO-points
      133   331.50   379.50   836.50   929.50  RHO-points
      134   379.50   427.50   836.50   929.50  RHO-points
      135   427.50   475.50   836.50   929.50  RHO-points
      136   475.50   523.50   836.50   929.50  RHO-points
      137   523.50   571.50   836.50   929.50  RHO-points
      138   571.50   619.50   836.50   929.50  RHO-points
      139   619.50   661.50   836.50   929.50  RHO-points
      140     0.50    43.50   929.50  1022.50  RHO-points
      141    43.50    91.50   929.50  1022.50  RHO-points
      142    91.50   139.50   929.50  1022.50  RHO-points
      143   139.50   187.50   929.50  1022.50  RHO-points
      144   187.50   235.50   929.50  1022.50  RHO-points
      145   235.50   283.50   929.50  1022.50  RHO-points
      146   283.50   331.50   929.50  1022.50  RHO-points
      147   331.50   379.50   929.50  1022.50  RHO-points
      148   379.50   427.50   929.50  1022.50  RHO-points
      149   427.50   475.50   929.50  1022.50  RHO-points
      150   475.50   523.50   929.50  1022.50  RHO-points
      151   523.50   571.50   929.50  1022.50  RHO-points
      152   571.50   619.50   929.50  1022.50  RHO-points
      153   619.50   661.50   929.50  1022.50  RHO-points
      154     0.50    43.50  1022.50  1115.50  RHO-points
      155    43.50    91.50  1022.50  1115.50  RHO-points
      156    91.50   139.50  1022.50  1115.50  RHO-points
      157   139.50   187.50  1022.50  1115.50  RHO-points
      158   187.50   235.50  1022.50  1115.50  RHO-points
      159   235.50   283.50  1022.50  1115.50  RHO-points
      160   283.50   331.50  1022.50  1115.50  RHO-points
      161   331.50   379.50  1022.50  1115.50  RHO-points
      162   379.50   427.50  1022.50  1115.50  RHO-points
      163   427.50   475.50  1022.50  1115.50  RHO-points
      164   475.50   523.50  1022.50  1115.50  RHO-points
      165   523.50   571.50  1022.50  1115.50  RHO-points
      166   571.50   619.50  1022.50  1115.50  RHO-points
      167   619.50   661.50  1022.50  1115.50  RHO-points
      168     0.50    43.50  1115.50  1208.50  RHO-points
      169    43.50    91.50  1115.50  1208.50  RHO-points
      170    91.50   139.50  1115.50  1208.50  RHO-points
      171   139.50   187.50  1115.50  1208.50  RHO-points
      172   187.50   235.50  1115.50  1208.50  RHO-points
      173   235.50   283.50  1115.50  1208.50  RHO-points
      174   283.50   331.50  1115.50  1208.50  RHO-points
      175   331.50   379.50  1115.50  1208.50  RHO-points
      176   379.50   427.50  1115.50  1208.50  RHO-points
      177   427.50   475.50  1115.50  1208.50  RHO-points
      178   475.50   523.50  1115.50  1208.50  RHO-points
      179   523.50   571.50  1115.50  1208.50  RHO-points
      180   571.50   619.50  1115.50  1208.50  RHO-points
      181   619.50   661.50  1115.50  1208.50  RHO-points
      182     0.50    43.50  1208.50  1300.50  RHO-points
      183    43.50    91.50  1208.50  1300.50  RHO-points
      184    91.50   139.50  1208.50  1300.50  RHO-points
      185   139.50   187.50  1208.50  1300.50  RHO-points
      186   187.50   235.50  1208.50  1300.50  RHO-points
      187   235.50   283.50  1208.50  1300.50  RHO-points
      188   283.50   331.50  1208.50  1300.50  RHO-points
      189   331.50   379.50  1208.50  1300.50  RHO-points
      190   379.50   427.50  1208.50  1300.50  RHO-points
      191   427.50   475.50  1208.50  1300.50  RHO-points
      192   475.50   523.50  1208.50  1300.50  RHO-points
      193   523.50   571.50  1208.50  1300.50  RHO-points
      194   571.50   619.50  1208.50  1300.50  RHO-points
      195   619.50   661.50  1208.50  1300.50  RHO-points

        0     1.00    43.50     0.50    92.50    U-points
        1    43.50    91.50     0.50    92.50    U-points
        2    91.50   139.50     0.50    92.50    U-points
        3   139.50   187.50     0.50    92.50    U-points
        4   187.50   235.50     0.50    92.50    U-points
        5   235.50   283.50     0.50    92.50    U-points
        6   283.50   331.50     0.50    92.50    U-points
        7   331.50   379.50     0.50    92.50    U-points
        8   379.50   427.50     0.50    92.50    U-points
        9   427.50   475.50     0.50    92.50    U-points
       10   475.50   523.50     0.50    92.50    U-points
       11   523.50   571.50     0.50    92.50    U-points
       12   571.50   619.50     0.50    92.50    U-points
       13   619.50   661.00     0.50    92.50    U-points
       14     1.00    43.50    92.50   185.50    U-points
       15    43.50    91.50    92.50   185.50    U-points
       16    91.50   139.50    92.50   185.50    U-points
       17   139.50   187.50    92.50   185.50    U-points
       18   187.50   235.50    92.50   185.50    U-points
       19   235.50   283.50    92.50   185.50    U-points
       20   283.50   331.50    92.50   185.50    U-points
       21   331.50   379.50    92.50   185.50    U-points
       22   379.50   427.50    92.50   185.50    U-points
       23   427.50   475.50    92.50   185.50    U-points
       24   475.50   523.50    92.50   185.50    U-points
       25   523.50   571.50    92.50   185.50    U-points
       26   571.50   619.50    92.50   185.50    U-points
       27   619.50   661.00    92.50   185.50    U-points
       28     1.00    43.50   185.50   278.50    U-points
       29    43.50    91.50   185.50   278.50    U-points
       30    91.50   139.50   185.50   278.50    U-points
       31   139.50   187.50   185.50   278.50    U-points
       32   187.50   235.50   185.50   278.50    U-points
       33   235.50   283.50   185.50   278.50    U-points
       34   283.50   331.50   185.50   278.50    U-points
       35   331.50   379.50   185.50   278.50    U-points
       36   379.50   427.50   185.50   278.50    U-points
       37   427.50   475.50   185.50   278.50    U-points
       38   475.50   523.50   185.50   278.50    U-points
       39   523.50   571.50   185.50   278.50    U-points
       40   571.50   619.50   185.50   278.50    U-points
       41   619.50   661.00   185.50   278.50    U-points
       42     1.00    43.50   278.50   371.50    U-points
       43    43.50    91.50   278.50   371.50    U-points
       44    91.50   139.50   278.50   371.50    U-points
       45   139.50   187.50   278.50   371.50    U-points
       46   187.50   235.50   278.50   371.50    U-points
       47   235.50   283.50   278.50   371.50    U-points
       48   283.50   331.50   278.50   371.50    U-points
       49   331.50   379.50   278.50   371.50    U-points
       50   379.50   427.50   278.50   371.50    U-points
       51   427.50   475.50   278.50   371.50    U-points
       52   475.50   523.50   278.50   371.50    U-points
       53   523.50   571.50   278.50   371.50    U-points
       54   571.50   619.50   278.50   371.50    U-points
       55   619.50   661.00   278.50   371.50    U-points
       56     1.00    43.50   371.50   464.50    U-points
       57    43.50    91.50   371.50   464.50    U-points
       58    91.50   139.50   371.50   464.50    U-points
       59   139.50   187.50   371.50   464.50    U-points
       60   187.50   235.50   371.50   464.50    U-points
       61   235.50   283.50   371.50   464.50    U-points
       62   283.50   331.50   371.50   464.50    U-points
       63   331.50   379.50   371.50   464.50    U-points
       64   379.50   427.50   371.50   464.50    U-points
       65   427.50   475.50   371.50   464.50    U-points
       66   475.50   523.50   371.50   464.50    U-points
       67   523.50   571.50   371.50   464.50    U-points
       68   571.50   619.50   371.50   464.50    U-points
       69   619.50   661.00   371.50   464.50    U-points
       70     1.00    43.50   464.50   557.50    U-points
       71    43.50    91.50   464.50   557.50    U-points
       72    91.50   139.50   464.50   557.50    U-points
       73   139.50   187.50   464.50   557.50    U-points
       74   187.50   235.50   464.50   557.50    U-points
       75   235.50   283.50   464.50   557.50    U-points
       76   283.50   331.50   464.50   557.50    U-points
       77   331.50   379.50   464.50   557.50    U-points
       78   379.50   427.50   464.50   557.50    U-points
       79   427.50   475.50   464.50   557.50    U-points
       80   475.50   523.50   464.50   557.50    U-points
       81   523.50   571.50   464.50   557.50    U-points
       82   571.50   619.50   464.50   557.50    U-points
       83   619.50   661.00   464.50   557.50    U-points
       84     1.00    43.50   557.50   650.50    U-points
       85    43.50    91.50   557.50   650.50    U-points
       86    91.50   139.50   557.50   650.50    U-points
       87   139.50   187.50   557.50   650.50    U-points
       88   187.50   235.50   557.50   650.50    U-points
       89   235.50   283.50   557.50   650.50    U-points
       90   283.50   331.50   557.50   650.50    U-points
       91   331.50   379.50   557.50   650.50    U-points
       92   379.50   427.50   557.50   650.50    U-points
       93   427.50   475.50   557.50   650.50    U-points
       94   475.50   523.50   557.50   650.50    U-points
       95   523.50   571.50   557.50   650.50    U-points
       96   571.50   619.50   557.50   650.50    U-points
       97   619.50   661.00   557.50   650.50    U-points
       98     1.00    43.50   650.50   743.50    U-points
       99    43.50    91.50   650.50   743.50    U-points
      100    91.50   139.50   650.50   743.50    U-points
      101   139.50   187.50   650.50   743.50    U-points
      102   187.50   235.50   650.50   743.50    U-points
      103   235.50   283.50   650.50   743.50    U-points
      104   283.50   331.50   650.50   743.50    U-points
      105   331.50   379.50   650.50   743.50    U-points
      106   379.50   427.50   650.50   743.50    U-points
      107   427.50   475.50   650.50   743.50    U-points
      108   475.50   523.50   650.50   743.50    U-points
      109   523.50   571.50   650.50   743.50    U-points
      110   571.50   619.50   650.50   743.50    U-points
      111   619.50   661.00   650.50   743.50    U-points
      112     1.00    43.50   743.50   836.50    U-points
      113    43.50    91.50   743.50   836.50    U-points
      114    91.50   139.50   743.50   836.50    U-points
      115   139.50   187.50   743.50   836.50    U-points
      116   187.50   235.50   743.50   836.50    U-points
      117   235.50   283.50   743.50   836.50    U-points
      118   283.50   331.50   743.50   836.50    U-points
      119   331.50   379.50   743.50   836.50    U-points
      120   379.50   427.50   743.50   836.50    U-points
      121   427.50   475.50   743.50   836.50    U-points
      122   475.50   523.50   743.50   836.50    U-points
      123   523.50   571.50   743.50   836.50    U-points
      124   571.50   619.50   743.50   836.50    U-points
      125   619.50   661.00   743.50   836.50    U-points
      126     1.00    43.50   836.50   929.50    U-points
      127    43.50    91.50   836.50   929.50    U-points
      128    91.50   139.50   836.50   929.50    U-points
      129   139.50   187.50   836.50   929.50    U-points
      130   187.50   235.50   836.50   929.50    U-points
      131   235.50   283.50   836.50   929.50    U-points
      132   283.50   331.50   836.50   929.50    U-points
      133   331.50   379.50   836.50   929.50    U-points
      134   379.50   427.50   836.50   929.50    U-points
      135   427.50   475.50   836.50   929.50    U-points
      136   475.50   523.50   836.50   929.50    U-points
      137   523.50   571.50   836.50   929.50    U-points
      138   571.50   619.50   836.50   929.50    U-points
      139   619.50   661.00   836.50   929.50    U-points
      140     1.00    43.50   929.50  1022.50    U-points
      141    43.50    91.50   929.50  1022.50    U-points
      142    91.50   139.50   929.50  1022.50    U-points
      143   139.50   187.50   929.50  1022.50    U-points
      144   187.50   235.50   929.50  1022.50    U-points
      145   235.50   283.50   929.50  1022.50    U-points
      146   283.50   331.50   929.50  1022.50    U-points
      147   331.50   379.50   929.50  1022.50    U-points
      148   379.50   427.50   929.50  1022.50    U-points
      149   427.50   475.50   929.50  1022.50    U-points
      150   475.50   523.50   929.50  1022.50    U-points
      151   523.50   571.50   929.50  1022.50    U-points
      152   571.50   619.50   929.50  1022.50    U-points
      153   619.50   661.00   929.50  1022.50    U-points
      154     1.00    43.50  1022.50  1115.50    U-points
      155    43.50    91.50  1022.50  1115.50    U-points
      156    91.50   139.50  1022.50  1115.50    U-points
      157   139.50   187.50  1022.50  1115.50    U-points
      158   187.50   235.50  1022.50  1115.50    U-points
      159   235.50   283.50  1022.50  1115.50    U-points
      160   283.50   331.50  1022.50  1115.50    U-points
      161   331.50   379.50  1022.50  1115.50    U-points
      162   379.50   427.50  1022.50  1115.50    U-points
      163   427.50   475.50  1022.50  1115.50    U-points
      164   475.50   523.50  1022.50  1115.50    U-points
      165   523.50   571.50  1022.50  1115.50    U-points
      166   571.50   619.50  1022.50  1115.50    U-points
      167   619.50   661.00  1022.50  1115.50    U-points
      168     1.00    43.50  1115.50  1208.50    U-points
      169    43.50    91.50  1115.50  1208.50    U-points
      170    91.50   139.50  1115.50  1208.50    U-points
      171   139.50   187.50  1115.50  1208.50    U-points
      172   187.50   235.50  1115.50  1208.50    U-points
      173   235.50   283.50  1115.50  1208.50    U-points
      174   283.50   331.50  1115.50  1208.50    U-points
      175   331.50   379.50  1115.50  1208.50    U-points
      176   379.50   427.50  1115.50  1208.50    U-points
      177   427.50   475.50  1115.50  1208.50    U-points
      178   475.50   523.50  1115.50  1208.50    U-points
      179   523.50   571.50  1115.50  1208.50    U-points
      180   571.50   619.50  1115.50  1208.50    U-points
      181   619.50   661.00  1115.50  1208.50    U-points
      182     1.00    43.50  1208.50  1300.50    U-points
      183    43.50    91.50  1208.50  1300.50    U-points
      184    91.50   139.50  1208.50  1300.50    U-points
      185   139.50   187.50  1208.50  1300.50    U-points
      186   187.50   235.50  1208.50  1300.50    U-points
      187   235.50   283.50  1208.50  1300.50    U-points
      188   283.50   331.50  1208.50  1300.50    U-points
      189   331.50   379.50  1208.50  1300.50    U-points
      190   379.50   427.50  1208.50  1300.50    U-points
      191   427.50   475.50  1208.50  1300.50    U-points
      192   475.50   523.50  1208.50  1300.50    U-points
      193   523.50   571.50  1208.50  1300.50    U-points
      194   571.50   619.50  1208.50  1300.50    U-points
      195   619.50   661.00  1208.50  1300.50    U-points

        0     0.50    43.50     1.00    92.50    V-points
        1    43.50    91.50     1.00    92.50    V-points
        2    91.50   139.50     1.00    92.50    V-points
        3   139.50   187.50     1.00    92.50    V-points
        4   187.50   235.50     1.00    92.50    V-points
        5   235.50   283.50     1.00    92.50    V-points
        6   283.50   331.50     1.00    92.50    V-points
        7   331.50   379.50     1.00    92.50    V-points
        8   379.50   427.50     1.00    92.50    V-points
        9   427.50   475.50     1.00    92.50    V-points
       10   475.50   523.50     1.00    92.50    V-points
       11   523.50   571.50     1.00    92.50    V-points
       12   571.50   619.50     1.00    92.50    V-points
       13   619.50   661.50     1.00    92.50    V-points
       14     0.50    43.50    92.50   185.50    V-points
       15    43.50    91.50    92.50   185.50    V-points
       16    91.50   139.50    92.50   185.50    V-points
       17   139.50   187.50    92.50   185.50    V-points
       18   187.50   235.50    92.50   185.50    V-points
       19   235.50   283.50    92.50   185.50    V-points
       20   283.50   331.50    92.50   185.50    V-points
       21   331.50   379.50    92.50   185.50    V-points
       22   379.50   427.50    92.50   185.50    V-points
       23   427.50   475.50    92.50   185.50    V-points
       24   475.50   523.50    92.50   185.50    V-points
       25   523.50   571.50    92.50   185.50    V-points
       26   571.50   619.50    92.50   185.50    V-points
       27   619.50   661.50    92.50   185.50    V-points
       28     0.50    43.50   185.50   278.50    V-points
       29    43.50    91.50   185.50   278.50    V-points
       30    91.50   139.50   185.50   278.50    V-points
       31   139.50   187.50   185.50   278.50    V-points
       32   187.50   235.50   185.50   278.50    V-points
       33   235.50   283.50   185.50   278.50    V-points
       34   283.50   331.50   185.50   278.50    V-points
       35   331.50   379.50   185.50   278.50    V-points
       36   379.50   427.50   185.50   278.50    V-points
       37   427.50   475.50   185.50   278.50    V-points
       38   475.50   523.50   185.50   278.50    V-points
       39   523.50   571.50   185.50   278.50    V-points
       40   571.50   619.50   185.50   278.50    V-points
       41   619.50   661.50   185.50   278.50    V-points
       42     0.50    43.50   278.50   371.50    V-points
       43    43.50    91.50   278.50   371.50    V-points
       44    91.50   139.50   278.50   371.50    V-points
       45   139.50   187.50   278.50   371.50    V-points
       46   187.50   235.50   278.50   371.50    V-points
       47   235.50   283.50   278.50   371.50    V-points
       48   283.50   331.50   278.50   371.50    V-points
       49   331.50   379.50   278.50   371.50    V-points
       50   379.50   427.50   278.50   371.50    V-points
       51   427.50   475.50   278.50   371.50    V-points
       52   475.50   523.50   278.50   371.50    V-points
       53   523.50   571.50   278.50   371.50    V-points
       54   571.50   619.50   278.50   371.50    V-points
       55   619.50   661.50   278.50   371.50    V-points
       56     0.50    43.50   371.50   464.50    V-points
       57    43.50    91.50   371.50   464.50    V-points
       58    91.50   139.50   371.50   464.50    V-points
       59   139.50   187.50   371.50   464.50    V-points
       60   187.50   235.50   371.50   464.50    V-points
       61   235.50   283.50   371.50   464.50    V-points
       62   283.50   331.50   371.50   464.50    V-points
       63   331.50   379.50   371.50   464.50    V-points
       64   379.50   427.50   371.50   464.50    V-points
       65   427.50   475.50   371.50   464.50    V-points
       66   475.50   523.50   371.50   464.50    V-points
       67   523.50   571.50   371.50   464.50    V-points
       68   571.50   619.50   371.50   464.50    V-points
       69   619.50   661.50   371.50   464.50    V-points
       70     0.50    43.50   464.50   557.50    V-points
       71    43.50    91.50   464.50   557.50    V-points
       72    91.50   139.50   464.50   557.50    V-points
       73   139.50   187.50   464.50   557.50    V-points
       74   187.50   235.50   464.50   557.50    V-points
       75   235.50   283.50   464.50   557.50    V-points
       76   283.50   331.50   464.50   557.50    V-points
       77   331.50   379.50   464.50   557.50    V-points
       78   379.50   427.50   464.50   557.50    V-points
       79   427.50   475.50   464.50   557.50    V-points
       80   475.50   523.50   464.50   557.50    V-points
       81   523.50   571.50   464.50   557.50    V-points
       82   571.50   619.50   464.50   557.50    V-points
       83   619.50   661.50   464.50   557.50    V-points
       84     0.50    43.50   557.50   650.50    V-points
       85    43.50    91.50   557.50   650.50    V-points
       86    91.50   139.50   557.50   650.50    V-points
       87   139.50   187.50   557.50   650.50    V-points
       88   187.50   235.50   557.50   650.50    V-points
       89   235.50   283.50   557.50   650.50    V-points
       90   283.50   331.50   557.50   650.50    V-points
       91   331.50   379.50   557.50   650.50    V-points
       92   379.50   427.50   557.50   650.50    V-points
       93   427.50   475.50   557.50   650.50    V-points
       94   475.50   523.50   557.50   650.50    V-points
       95   523.50   571.50   557.50   650.50    V-points
       96   571.50   619.50   557.50   650.50    V-points
       97   619.50   661.50   557.50   650.50    V-points
       98     0.50    43.50   650.50   743.50    V-points
       99    43.50    91.50   650.50   743.50    V-points
      100    91.50   139.50   650.50   743.50    V-points
      101   139.50   187.50   650.50   743.50    V-points
      102   187.50   235.50   650.50   743.50    V-points
      103   235.50   283.50   650.50   743.50    V-points
      104   283.50   331.50   650.50   743.50    V-points
      105   331.50   379.50   650.50   743.50    V-points
      106   379.50   427.50   650.50   743.50    V-points
      107   427.50   475.50   650.50   743.50    V-points
      108   475.50   523.50   650.50   743.50    V-points
      109   523.50   571.50   650.50   743.50    V-points
      110   571.50   619.50   650.50   743.50    V-points
      111   619.50   661.50   650.50   743.50    V-points
      112     0.50    43.50   743.50   836.50    V-points
      113    43.50    91.50   743.50   836.50    V-points
      114    91.50   139.50   743.50   836.50    V-points
      115   139.50   187.50   743.50   836.50    V-points
      116   187.50   235.50   743.50   836.50    V-points
      117   235.50   283.50   743.50   836.50    V-points
      118   283.50   331.50   743.50   836.50    V-points
      119   331.50   379.50   743.50   836.50    V-points
      120   379.50   427.50   743.50   836.50    V-points
      121   427.50   475.50   743.50   836.50    V-points
      122   475.50   523.50   743.50   836.50    V-points
      123   523.50   571.50   743.50   836.50    V-points
      124   571.50   619.50   743.50   836.50    V-points
      125   619.50   661.50   743.50   836.50    V-points
      126     0.50    43.50   836.50   929.50    V-points
      127    43.50    91.50   836.50   929.50    V-points
      128    91.50   139.50   836.50   929.50    V-points
      129   139.50   187.50   836.50   929.50    V-points
      130   187.50   235.50   836.50   929.50    V-points
      131   235.50   283.50   836.50   929.50    V-points
      132   283.50   331.50   836.50   929.50    V-points
      133   331.50   379.50   836.50   929.50    V-points
      134   379.50   427.50   836.50   929.50    V-points
      135   427.50   475.50   836.50   929.50    V-points
      136   475.50   523.50   836.50   929.50    V-points
      137   523.50   571.50   836.50   929.50    V-points
      138   571.50   619.50   836.50   929.50    V-points
      139   619.50   661.50   836.50   929.50    V-points
      140     0.50    43.50   929.50  1022.50    V-points
      141    43.50    91.50   929.50  1022.50    V-points
      142    91.50   139.50   929.50  1022.50    V-points
      143   139.50   187.50   929.50  1022.50    V-points
      144   187.50   235.50   929.50  1022.50    V-points
      145   235.50   283.50   929.50  1022.50    V-points
      146   283.50   331.50   929.50  1022.50    V-points
      147   331.50   379.50   929.50  1022.50    V-points
      148   379.50   427.50   929.50  1022.50    V-points
      149   427.50   475.50   929.50  1022.50    V-points
      150   475.50   523.50   929.50  1022.50    V-points
      151   523.50   571.50   929.50  1022.50    V-points
      152   571.50   619.50   929.50  1022.50    V-points
      153   619.50   661.50   929.50  1022.50    V-points
      154     0.50    43.50  1022.50  1115.50    V-points
      155    43.50    91.50  1022.50  1115.50    V-points
      156    91.50   139.50  1022.50  1115.50    V-points
      157   139.50   187.50  1022.50  1115.50    V-points
      158   187.50   235.50  1022.50  1115.50    V-points
      159   235.50   283.50  1022.50  1115.50    V-points
      160   283.50   331.50  1022.50  1115.50    V-points
      161   331.50   379.50  1022.50  1115.50    V-points
      162   379.50   427.50  1022.50  1115.50    V-points
      163   427.50   475.50  1022.50  1115.50    V-points
      164   475.50   523.50  1022.50  1115.50    V-points
      165   523.50   571.50  1022.50  1115.50    V-points
      166   571.50   619.50  1022.50  1115.50    V-points
      167   619.50   661.50  1022.50  1115.50    V-points
      168     0.50    43.50  1115.50  1208.50    V-points
      169    43.50    91.50  1115.50  1208.50    V-points
      170    91.50   139.50  1115.50  1208.50    V-points
      171   139.50   187.50  1115.50  1208.50    V-points
      172   187.50   235.50  1115.50  1208.50    V-points
      173   235.50   283.50  1115.50  1208.50    V-points
      174   283.50   331.50  1115.50  1208.50    V-points
      175   331.50   379.50  1115.50  1208.50    V-points
      176   379.50   427.50  1115.50  1208.50    V-points
      177   427.50   475.50  1115.50  1208.50    V-points
      178   475.50   523.50  1115.50  1208.50    V-points
      179   523.50   571.50  1115.50  1208.50    V-points
      180   571.50   619.50  1115.50  1208.50    V-points
      181   619.50   661.50  1115.50  1208.50    V-points
      182     0.50    43.50  1208.50  1300.00    V-points
      183    43.50    91.50  1208.50  1300.00    V-points
      184    91.50   139.50  1208.50  1300.00    V-points
      185   139.50   187.50  1208.50  1300.00    V-points
      186   187.50   235.50  1208.50  1300.00    V-points
      187   235.50   283.50  1208.50  1300.00    V-points
      188   283.50   331.50  1208.50  1300.00    V-points
      189   331.50   379.50  1208.50  1300.00    V-points
      190   379.50   427.50  1208.50  1300.00    V-points
      191   427.50   475.50  1208.50  1300.00    V-points
      192   475.50   523.50  1208.50  1300.00    V-points
      193   523.50   571.50  1208.50  1300.00    V-points
      194   571.50   619.50  1208.50  1300.00    V-points
      195   619.50   661.50  1208.50  1300.00    V-points

 Maximum halo size in XI and ETA directions:

               HaloSizeI(1) =     186
               HaloSizeJ(1) =     321
                TileSide(1) =     101
                TileSize(1) =    5656



 Banas NPZDO Model Parameters, Grid: 01
 =================================

          1  BioIter           Number of iterations for nonlinear convergence.
 6.5400E-02  AttSW             Light attenuation of seawater (m-1).
 4.0000E-02  AttP              Light attenuation by chlorophyll (1/(mg_Chl m-2)).
 0.0000E+00  nl_tnu2(03)       NLM Horizontal, harmonic mixing coefficient
                                 (m2/s) for tracer 03: NO3
 0.0000E+00  nl_tnu2(04)       NLM Horizontal, harmonic mixing coefficient
                                 (m2/s) for tracer 04: phytoplankton
 0.0000E+00  nl_tnu2(05)       NLM Horizontal, harmonic mixing coefficient
                                 (m2/s) for tracer 05: zooplankton
 0.0000E+00  nl_tnu2(06)       NLM Horizontal, harmonic mixing coefficient
                                 (m2/s) for tracer 06: detritus
 0.0000E+00  nl_tnu2(07)       NLM Horizontal, harmonic mixing coefficient
                                 (m2/s) for tracer 07: Ldetritus
 0.0000E+00  nl_tnu2(08)       NLM Horizontal, harmonic mixing coefficient
                                 (m2/s) for tracer 08: oxygen
 0.0000E+00  nl_tnu2(09)       NLM Horizontal, harmonic mixing coefficient
                                 (m2/s) for tracer 09: TIC
 0.0000E+00  nl_tnu2(10)       NLM Horizontal, harmonic mixing coefficient
                                 (m2/s) for tracer 10: alkalinity
 0.0000E+00  nl_tnu2(11)       NLM Horizontal, harmonic mixing coefficient
                                 (m2/s) for tracer 11: CaCO3
          F  LtracerSponge(03) Turning OFF sponge on tracer 03: NO3
          F  LtracerSponge(04) Turning OFF sponge on tracer 04: phytoplankton
          F  LtracerSponge(05) Turning OFF sponge on tracer 05: zooplankton
          F  LtracerSponge(06) Turning OFF sponge on tracer 06: detritus
          F  LtracerSponge(07) Turning OFF sponge on tracer 07: Ldetritus
          F  LtracerSponge(08) Turning OFF sponge on tracer 08: oxygen
          F  LtracerSponge(09) Turning OFF sponge on tracer 09: TIC
          F  LtracerSponge(10) Turning OFF sponge on tracer 10: alkalinity
          F  LtracerSponge(11) Turning OFF sponge on tracer 11: CaCO3
 1.0000E-06  Akt_bak(03)       Background vertical mixing coefficient (m2/s)
                                 for tracer 03: NO3
 1.0000E-06  Akt_bak(04)       Background vertical mixing coefficient (m2/s)
                                 for tracer 04: phytoplankton
 1.0000E-06  Akt_bak(05)       Background vertical mixing coefficient (m2/s)
                                 for tracer 05: zooplankton
 1.0000E-06  Akt_bak(06)       Background vertical mixing coefficient (m2/s)
                                 for tracer 06: detritus
 1.0000E-06  Akt_bak(07)       Background vertical mixing coefficient (m2/s)
                                 for tracer 07: Ldetritus
 1.0000E-06  Akt_bak(08)       Background vertical mixing coefficient (m2/s)
                                 for tracer 08: oxygen
 1.0000E-06  Akt_bak(09)       Background vertical mixing coefficient (m2/s)
                                 for tracer 09: TIC
 1.0000E-06  Akt_bak(10)       Background vertical mixing coefficient (m2/s)
                                 for tracer 10: alkalinity
 1.0000E-06  Akt_bak(11)       Background vertical mixing coefficient (m2/s)
                                 for tracer 11: CaCO3
 3.0000E+00  Tnudg(03)         Nudging/relaxation time scale (days)
                                 for tracer 03: NO3
 3.0000E+00  Tnudg(04)         Nudging/relaxation time scale (days)
                                 for tracer 04: phytoplankton
 3.0000E+00  Tnudg(05)         Nudging/relaxation time scale (days)
                                 for tracer 05: zooplankton
 3.0000E+00  Tnudg(06)         Nudging/relaxation time scale (days)
                                 for tracer 06: detritus
 3.0000E+00  Tnudg(07)         Nudging/relaxation time scale (days)
                                 for tracer 07: Ldetritus
 3.0000E+00  Tnudg(08)         Nudging/relaxation time scale (days)
                                 for tracer 08: oxygen
 3.0000E+00  Tnudg(09)         Nudging/relaxation time scale (days)
                                 for tracer 09: TIC
 3.0000E+00  Tnudg(10)         Nudging/relaxation time scale (days)
                                 for tracer 10: alkalinity
 3.0000E+00  Tnudg(11)         Nudging/relaxation time scale (days)
                                 for tracer 11: CaCO3
          T  LtracerSrc(03)    Turning ON  point sources/Sink on tracer 03: NO3
          T  LtracerSrc(04)    Turning ON  point sources/Sink on tracer 04: phytoplankton
          T  LtracerSrc(05)    Turning ON  point sources/Sink on tracer 05: zooplankton
          T  LtracerSrc(06)    Turning ON  point sources/Sink on tracer 06: detritus
          T  LtracerSrc(07)    Turning ON  point sources/Sink on tracer 07: Ldetritus
          T  LtracerSrc(08)    Turning ON  point sources/Sink on tracer 08: oxygen
          T  LtracerSrc(09)    Turning ON  point sources/Sink on tracer 09: TIC
          T  LtracerSrc(10)    Turning ON  point sources/Sink on tracer 10: alkalinity
          T  LtracerSrc(11)    Turning ON  point sources/Sink on tracer 11: CaCO3
          T  LtracerCLM(03)    Turning ON  processing of climatology tracer 03: NO3
          T  LtracerCLM(04)    Turning ON  processing of climatology tracer 04: phytoplankton
          T  LtracerCLM(05)    Turning ON  processing of climatology tracer 05: zooplankton
          T  LtracerCLM(06)    Turning ON  processing of climatology tracer 06: detritus
          T  LtracerCLM(07)    Turning ON  processing of climatology tracer 07: Ldetritus
          T  LtracerCLM(08)    Turning ON  processing of climatology tracer 08: oxygen
          T  LtracerCLM(09)    Turning ON  processing of climatology tracer 09: TIC
          T  LtracerCLM(10)    Turning ON  processing of climatology tracer 10: alkalinity
          T  LtracerCLM(11)    Turning ON  processing of climatology tracer 11: CaCO3
          T  LnudgeTCLM(03)    Turning ON  nudging of climatology tracer 03: NO3
          T  LnudgeTCLM(04)    Turning ON  nudging of climatology tracer 04: phytoplankton
          T  LnudgeTCLM(05)    Turning ON  nudging of climatology tracer 05: zooplankton
          T  LnudgeTCLM(06)    Turning ON  nudging of climatology tracer 06: detritus
          T  LnudgeTCLM(07)    Turning ON  nudging of climatology tracer 07: Ldetritus
          T  LnudgeTCLM(08)    Turning ON  nudging of climatology tracer 08: oxygen
          T  LnudgeTCLM(09)    Turning ON  nudging of climatology tracer 09: TIC
          T  LnudgeTCLM(10)    Turning ON  nudging of climatology tracer 10: alkalinity
          T  LnudgeTCLM(11)    Turning ON  nudging of climatology tracer 11: CaCO3

          T  Hout(idTvar)      Write out tracer 03: NO3
          T  Hout(idTvar)      Write out tracer 04: phytoplankton
          T  Hout(idTvar)      Write out tracer 05: zooplankton
          T  Hout(idTvar)      Write out tracer 06: detritus
          T  Hout(idTvar)      Write out tracer 07: Ldetritus
          T  Hout(idTvar)      Write out tracer 08: oxygen
          T  Hout(idTvar)      Write out tracer 09: TIC
          T  Hout(idTvar)      Write out tracer 10: alkalinity
          T  Hout(idTvar)      Write out tracer 11: CaCO3

 Lateral Boundary Conditions: NLM
 ============================

 Variable               Grid  West Edge    South Edge   East Edge    North Edge
 ---------              ----  ----------   ----------   ----------   ----------

 zeta                     1   Chapman Imp  Chapman Imp  Closed       Chapman Imp

 ubar                     1   Flather      Flather      Closed       Flather

 vbar                     1   Flather      Flather      Closed       Flather

 u                        1   Rad + Nud    Rad + Nud    Closed       Rad + Nud

 v                        1   Rad + Nud    Rad + Nud    Closed       Rad + Nud

 temp                     1   Rad + Nud    Rad + Nud    Closed       Rad + Nud

 salt                     1   Rad + Nud    Rad + Nud    Closed       Rad + Nud

 NO3                      1   Rad + Nud    Rad + Nud    Closed       Rad + Nud

 phytoplankton            1   Rad + Nud    Rad + Nud    Closed       Rad + Nud

 zooplankton              1   Rad + Nud    Rad + Nud    Closed       Rad + Nud

 detritus                 1   Rad + Nud    Rad + Nud    Closed       Rad + Nud

 Ldetritus                1   Rad + Nud    Rad + Nud    Closed       Rad + Nud

 oxygen                   1   Rad + Nud    Rad + Nud    Closed       Rad + Nud

 TIC                      1   Rad + Nud    Rad + Nud    Closed       Rad + Nud

 alkalinity               1   Rad + Nud    Rad + Nud    Closed       Rad + Nud

 CaCO3                    1   Gradient     Gradient     Closed       Closed

 tke                      1   Rad + Nud    Rad + Nud    Closed       Rad + Nud

 Activated C-preprocessing Options:

 LO8B                First LiveOcean input file
 ADD_FSOBC           Adding tidal elevation to processed OBC data.
 ADD_M2OBC           Adding tidal currents to processed OBC data.
 ANA_BPFLUX          Analytical bottom passive tracers fluxes.
 ANA_BSFLUX          Analytical kinematic bottom salinity flux.
 ANA_BTFLUX          Analytical kinematic bottom temperature flux.
 ANA_SPFLUX          Analytical surface passive tracer fluxes.
 ANA_SSFLUX          Analytical kinematic surface salinity flux.
 ASSUMED_SHAPE       Using assumed-shape arrays.
 BULK_FLUXES         Surface bulk fluxes parameterization.
 CANUTO_A            Canuto A-stability function formulation.
 DJ_GRADPS           Parabolic Splines density Jacobian (Shchepetkin, 2002).
 DOUBLE_PRECISION    Double precision arithmetic.
 GLS_MIXING          Generic Length-Scale turbulence closure.
 LONGWAVE_OUT        Compute outgoing longwave radiation internally.
 MASKING             Land/Sea masking.
 MIX_GEO_TS          Mixing of tracers along geopotential surfaces.
 MPI                 MPI distributed-memory configuration.
 NONLINEAR           Nonlinear Model.
 NONLIN_EOS          Nonlinear Equation of State for seawater.
 N2S2_HORAVG         Horizontal smoothing of buoyancy and shear.
 POWER_LAW           Power-law shape time-averaging barotropic filter.
 PROFILE             Time profiling activated .
 K_GSCHEME           Third-order upstream advection of TKE fields.
 RADIATION_2D        Use tangential phase speed in radiation conditions.
 RI_SPLINES          Parabolic Spline Reconstruction for Richardson Number.
 !RST_SINGLE         Double precision fields in restart NetCDF file.
 SALINITY            Using salinity.
 SOLAR_SOURCE        Solar Radiation Source Term.
 SOLVE3D             Solving 3D Primitive Equations.
 SPHERICAL           Spherical grid configuration.
 SSH_TIDES           Add tidal elevation to SSH climatology.
 TS_MPDATA           Recursive flux corrected MPDATA 3D advection of tracers.
 TS_DIF2             Harmonic mixing of tracers.
 UV_ADV              Advection of momentum.
 UV_COR              Coriolis term.
 UV_U3HADVECTION     Third-order upstream horizontal advection of 3D momentum.
 UV_C4VADVECTION     Fourth-order centered vertical advection of momentum.
 UV_QDRAG            Quadratic bottom stress.
 UV_TIDES            Add tidal currents to 2D momentum climatologies.
 VAR_RHO_2D          Variable density barotropic mode.

 Process Information:

 Node #  0 (pid=   32397) is active.
 Node #  3 (pid=   32400) is active.
 Node #  4 (pid=   32401) is active.
 Node # 14 (pid=   32411) is active.
 Node # 16 (pid=   32413) is active.
 Node # 20 (pid=   32417) is active.
 Node # 22 (pid=   32419) is active.
 Node #  1 (pid=   32398) is active.
 Node #  2 (pid=   32399) is active.
 Node #  6 (pid=   32403) is active.
 Node #  8 (pid=   32405) is active.
 Node #  9 (pid=   32406) is active.
 Node # 10 (pid=   32407) is active.
 Node # 11 (pid=   32408) is active.
 Node # 15 (pid=   32412) is active.
 Node # 17 (pid=   32414) is active.
 Node # 18 (pid=   32415) is active.
 Node # 19 (pid=   32416) is active.
 Node # 21 (pid=   32418) is active.
 Node # 23 (pid=   32420) is active.
 Node # 25 (pid=   32422) is active.
 Node # 27 (pid=   32424) is active.
 Node # 12 (pid=   32409) is active.
 Node # 13 (pid=   32410) is active.
 Node # 24 (pid=   32421) is active.
 Node # 26 (pid=   32423) is active.
 Node #  5 (pid=   32402) is active.
 Node #  7 (pid=   32404) is active.
 Node # 56 (pid=   27024) is active.
 Node # 65 (pid=   27033) is active.
 Node # 35 (pid=    7762) is active.
 Node # 83 (pid=   27051) is active.
 Node #117 (pid=   10272) is active.
 Node # 52 (pid=    7779) is active.
 Node #133 (pid=   10288) is active.
 Node # 31 (pid=    7758) is active.
 Node # 59 (pid=   27027) is active.
 Node #129 (pid=   10284) is active.
 Node # 73 (pid=   27041) is active.
 Node # 82 (pid=   27050) is active.
 Node # 89 (pid=   16331) is active.
 Node # 90 (pid=   16332) is active.
 Node # 60 (pid=   27028) is active.
 Node #101 (pid=   16345) is active.
 Node # 49 (pid=    7776) is active.
 Node # 50 (pid=    7777) is active.
 Node # 68 (pid=   27036) is active.
 Node #168 (pid=  403148) is active.
 Node #184 (pid=  403164) is active.
 Node #111 (pid=   16355) is active.
 Node # 42 (pid=    7769) is active.
 Node #176 (pid=  403156) is active.
 Node #113 (pid=   10268) is active.
 Node #183 (pid=  403163) is active.
 Node # 37 (pid=    7764) is active.
 Node # 75 (pid=   27043) is active.
 Node # 94 (pid=   16336) is active.
 Node #119 (pid=   10274) is active.
 Node #177 (pid=  403157) is active.
 Node #105 (pid=   16349) is active.
 Node # 46 (pid=    7773) is active.
 Node #132 (pid=   10287) is active.
 Node # 62 (pid=   27030) is active.
 Node #149 (pid=  343765) is active.
 Node #179 (pid=  403159) is active.
 Node # 69 (pid=   27037) is active.
 Node #159 (pid=  343775) is active.
 Node #162 (pid=  343778) is active.
 Node #143 (pid=  343759) is active.
 Node # 78 (pid=   27046) is active.
 Node #185 (pid=  403165) is active.
 Node # 41 (pid=    7768) is active.
 Node # 71 (pid=   27039) is active.
 Node #175 (pid=  403155) is active.
 Node # 79 (pid=   27047) is active.
 Node #114 (pid=   10269) is active.
 Node #148 (pid=  343764) is active.
 Node # 91 (pid=   16333) is active.
 Node # 28 (pid=    7755) is active.
 Node # 57 (pid=   27025) is active.
 Node #152 (pid=  343768) is active.
 Node # 32 (pid=    7759) is active.
 Node #126 (pid=   10281) is active.
 Node #135 (pid=   10290) is active.
 Node #173 (pid=  403153) is active.
 Node #136 (pid=   10291) is active.
 Node # 58 (pid=   27026) is active.
 Node # 70 (pid=   27038) is active.
 Node # 74 (pid=   27042) is active.
 Node #102 (pid=   16346) is active.
 Node #115 (pid=   10270) is active.
 Node # 96 (pid=   16338) is active.
 Node # 36 (pid=    7763) is active.
 Node # 61 (pid=   27029) is active.
 Node # 51 (pid=    7778) is active.
 Node #128 (pid=   10283) is active.
 Node # 92 (pid=   16334) is active.
 Node # 39 (pid=    7766) is active.
 Node #134 (pid=   10289) is active.
 Node #151 (pid=  343767) is active.
 Node # 48 (pid=    7775) is active.
 Node #181 (pid=  403161) is active.
 Node # 86 (pid=   16328) is active.
 Node #116 (pid=   10271) is active.
 Node #103 (pid=   16347) is active.
 Node # 76 (pid=   27044) is active.
 Node #124 (pid=   10279) is active.
 Node # 80 (pid=   27048) is active.
 Node # 44 (pid=    7771) is active.
 Node # 93 (pid=   16335) is active.
 Node # 45 (pid=    7772) is active.
 Node # 72 (pid=   27040) is active.
 Node #120 (pid=   10275) is active.
 Node #130 (pid=   10285) is active.
 Node # 85 (pid=   16327) is active.
 Node # 34 (pid=    7761) is active.
 Node # 81 (pid=   27049) is active.
 Node # 87 (pid=   16329) is active.
 Node # 43 (pid=    7770) is active.
 Node #127 (pid=   10282) is active.
 Node #195 (pid=  403175) is active.
 Node # 88 (pid=   16330) is active.
 Node # 55 (pid=    7782) is active.
 Node # 95 (pid=   16337) is active.
 Node # 29 (pid=    7756) is active.
 Node #121 (pid=   10276) is active.
 Node # 38 (pid=    7765) is active.
 Node # 67 (pid=   27035) is active.
 Node #139 (pid=   10294) is active.
 Node #110 (pid=   16354) is active.
 Node # 53 (pid=    7780) is active.
 Node #137 (pid=   10292) is active.
 Node #158 (pid=  343774) is active.
 Node #100 (pid=   16344) is active.
 Node # 40 (pid=    7767) is active.
 Node #186 (pid=  403166) is active.
 Node #108 (pid=   16352) is active.
 Node # 47 (pid=    7774) is active.
 Node # 63 (pid=   27031) is active.
 Node #118 (pid=   10273) is active.
 Node #191 (pid=  403171) is active.
 Node # 54 (pid=    7781) is active.
 Node # 30 (pid=    7757) is active.
 Node # 33 (pid=    7760) is active.
 Node #193 (pid=  403173) is active.
 Node # 64 (pid=   27032) is active.
 Node #123 (pid=   10278) is active.
 Node #122 (pid=   10277) is active.
 Node #104 (pid=   16348) is active.
 Node #131 (pid=   10286) is active.
 Node #187 (pid=  403167) is active.
 Node # 66 (pid=   27034) is active.
 Node #138 (pid=   10293) is active.
 Node #156 (pid=  343772) is active.
 Node # 77 (pid=   27045) is active.
 Node #112 (pid=   10267) is active.
 Node #125 (pid=   10280) is active.
 Node #165 (pid=  343781) is active.
 Node # 97 (pid=   16339) is active.
 Node #150 (pid=  343766) is active.
 Node #190 (pid=  403170) is active.
 Node # 98 (pid=   16342) is active.
 Node #109 (pid=   16353) is active.
 Node # 84 (pid=   16326) is active.
 Node # 99 (pid=   16343) is active.
 Node #107 (pid=   16351) is active.
 Node #106 (pid=   16350) is active.
 Node #154 (pid=  343770) is active.
 Node #180 (pid=  403160) is active.
 Node #160 (pid=  343776) is active.
 Node #161 (pid=  343777) is active.
 Node #174 (pid=  403154) is active.
 Node #178 (pid=  403158) is active.
 Node #146 (pid=  343762) is active.
 Node #163 (pid=  343779) is active.
 Node #169 (pid=  403149) is active.
 Node #144 (pid=  343760) is active.
 Node #171 (pid=  403151) is active.
 Node #172 (pid=  403152) is active.
 Node #192 (pid=  403172) is active.
 Node #170 (pid=  403150) is active.
 Node #182 (pid=  403162) is active.
 Node #189 (pid=  403169) is active.
 Node #140 (pid=  343756) is active.
 Node #188 (pid=  403168) is active.
 Node #153 (pid=  343769) is active.
 Node #194 (pid=  403174) is active.
 Node #147 (pid=  343763) is active.
 Node #142 (pid=  343758) is active.
 Node #155 (pid=  343771) is active.
 Node #164 (pid=  343780) is active.
 Node #166 (pid=  343782) is active.
 Node #141 (pid=  343757) is active.
 Node #157 (pid=  343773) is active.
 Node #167 (pid=  343783) is active.
 Node #145 (pid=  343761) is active.

 INITIAL: Configuring and initializing forward nonlinear model ...
 *******

 Vertical S-coordinate System, Grid 01:

 level   S-coord     Cs-curve   Z   at hmin       at hc    half way     at hmax

    30   0.0000000   0.0000000        0.000       0.000       0.000       0.000
    29  -0.0333333  -0.0007824       -0.096      -0.171      -2.189      -4.052
    28  -0.0666667  -0.0031404       -0.194      -0.349      -8.118     -15.593
    27  -0.1000000  -0.0071060       -0.294      -0.536     -17.864     -34.776
    26  -0.1333333  -0.0127329       -0.396      -0.730     -31.553     -61.856
    25  -0.1666667  -0.0200957       -0.499      -0.934     -49.362     -97.188
    24  -0.2000000  -0.0292902       -0.605      -1.146     -71.520    -141.226
    23  -0.2333333  -0.0404325       -0.713      -1.369     -98.301    -194.523
    22  -0.2666667  -0.0536583       -0.823      -1.602    -130.028    -257.725
    21  -0.3000000  -0.0691215       -0.936      -1.846    -167.066    -331.562
    20  -0.3333333  -0.0869923       -1.052      -2.102    -209.819    -416.843
    19  -0.3666667  -0.1074538       -1.170      -2.371    -258.722    -514.439
    18  -0.4000000  -0.1306982       -1.292      -2.653    -314.231    -625.263
    17  -0.4333333  -0.1569209       -1.417      -2.951    -376.810    -750.245
    16  -0.4666667  -0.1863128       -1.546      -3.265    -446.911    -890.291
    15  -0.5000000  -0.2190506       -1.679      -3.595    -524.955   -1046.242
    14  -0.5333333  -0.2552847       -1.816      -3.943    -611.299   -1218.813
    13  -0.5666667  -0.2951237       -1.956      -4.309    -706.199   -1408.520
    12  -0.6000000  -0.3386167       -2.101      -4.693    -809.774   -1615.595
    11  -0.6333333  -0.3857328       -2.250      -5.095    -921.948   -1839.894
    10  -0.6666667  -0.4363388       -2.403      -5.515   -1042.408   -2080.781
     9  -0.7000000  -0.4901756       -2.560      -5.951   -1170.536   -2337.026
     8  -0.7333333  -0.5468363       -2.720      -6.401   -1305.367   -2606.694
     7  -0.7666667  -0.6057475       -2.883      -6.862   -1445.541   -2887.059
     6  -0.8000000  -0.6661589       -3.047      -7.331   -1589.276   -3174.557
     5  -0.8333333  -0.7271443       -3.212      -7.802   -1734.373   -3464.782
     4  -0.8666667  -0.7876190       -3.376      -8.271   -1878.258   -3752.580
     3  -0.9000000  -0.8463790       -3.539      -8.732   -2018.073   -4032.227
     2  -0.9333333  -0.9021627       -3.698      -9.177   -2150.822   -4297.726
     1  -0.9666667  -0.9537369       -3.852      -9.602   -2273.580   -4543.216
     0  -1.0000000  -1.0000000       -4.000     -10.000   -2383.730   -4763.460

 Time Splitting Weights for Grid 01:    ndtfast =  20    nfast =  29
 ==================================

    Primary            Secondary            Accumulated to Current Step

  1-0.0009651193358779 0.0500000000000000-0.0009651193358779 0.0500000000000000
  2-0.0013488780126037 0.0500482559667939-0.0023139973484816 0.1000482559667939
  3-0.0011514592651645 0.0501156998674241-0.0034654566136460 0.1501639558342179
  4-0.0003735756740661 0.0501732728306823-0.0038390322877122 0.2003372286649002
  5 0.0009829200513762 0.0501919516143856-0.0028561122363360 0.2505291802792858
  6 0.0029141799764308 0.0501428056118168 0.0000580677400948 0.3006719858911026
  7 0.0054132615310267 0.0499970966129952 0.0054713292711215 0.3506690825040978
  8 0.0084687837865132 0.0497264335364439 0.0139401130576347 0.4003955160405417
  9 0.0120633394191050 0.0493029943471183 0.0260034524767397 0.4496985103876600
 10 0.0161716623600090 0.0486998273761630 0.0421751148367486 0.4983983377638230
 11 0.0207585511322367 0.0478912442581626 0.0629336659689853 0.5462895820219856
 12 0.0257765478740990 0.0468533167015507 0.0887102138430843 0.5931428987235363
 13 0.0311633730493853 0.0455644893078458 0.1198735868924696 0.6387073880313821
 14 0.0368391158442262 0.0440063206553765 0.1567127027366958 0.6827137086867585
 15 0.0427031802506397 0.0421643648631652 0.1994158829873354 0.7248780735499237
 16 0.0486309868367616 0.0400292058506332 0.2480468698240970 0.7649072794005569
 17 0.0544704302037591 0.0375976565087951 0.3025173000278562 0.8025049359093520
 18 0.0600380921294285 0.0348741349986072 0.3625553921572847 0.8373790709079592
[...]
                   (Rec=0000069, Index=1, File: rain.nc)
                   (Tmin=      18383.0000 Tmax=      18386.0000)
                   (Min =  0.00000000E+00 Max =  0.00000000E+00)
   6030 18385 19:00:00  4.053943E-03  1.309030E+04  1.309031E+04  8.529712E+14
         (640,0360,30)  1.590516E-03  0.000000E+00  6.938195E+00  2.660257E+00
      DEF_HIS     - creating  history      file, Grid 01: /gscratch/macc/parker/LiveOcean_roms/output/cas6_v3_lo8b/f2020.05.01/ocean_his_0068.nc
      WRT_HIS     - wrote history     fields (Index=1,1) in record = 0000001
    GET_2DFLD   - surface u-wind component,                  t = 18385 21:00:00
                   (Rec=0000070, Index=2, File: Uwind.nc)
                   (Tmin=      18383.0000 Tmax=      18386.0000)
                   (Min = -1.00956373E+01 Max =  1.36041908E+01)
    GET_2DFLD   - surface v-wind component,                  t = 18385 21:00:00
                   (Rec=0000070, Index=2, File: Vwind.nc)
                   (Tmin=      18383.0000 Tmax=      18386.0000)
                   (Min = -7.82547998E+00 Max =  1.35844250E+01)
    GET_2DFLD   - surface air pressure,                      t = 18385 21:00:00
                   (Rec=0000070, Index=2, File: Pair.nc)
                   (Tmin=      18383.0000 Tmax=      18386.0000)
                   (Min =  7.64845337E+02 Max =  1.02295764E+03)
    GET_2DFLD   - solar shortwave radiation flux,            t = 18385 21:00:00
                   (Rec=0000070, Index=2, File: swrad.nc)
                   (Tmin=      18383.0000 Tmax=      18386.0000)
                   (Min =  2.56181844E-06 Max =  2.22494836E-04)
    GET_2DFLD   - downwelling longwave radiation flux,       t = 18385 21:00:00
                   (Rec=0000070, Index=2, File: lwrad_down.nc)
                   (Tmin=      18383.0000 Tmax=      18386.0000)
                   (Min =  4.37704216E-05 Max =  8.75963060E-05)
    GET_2DFLD   - surface air temperature,                   t = 18385 21:00:00
                   (Rec=0000070, Index=2, File: Tair.nc)
                   (Tmin=      18383.0000 Tmax=      18386.0000)
                   (Min = -7.23693848E+00 Max =  1.77859802E+01)
    GET_2DFLD   - surface air relative humidity,             t = 18385 21:00:00
                   (Rec=0000070, Index=2, File: Qair.nc)
                   (Tmin=      18383.0000 Tmax=      18386.0000)
                   (Min =  1.29581757E-01 Max =  1.06002739E+00)
    GET_2DFLD   - rain fall rate,                            t = 18385 21:00:00
                   (Rec=0000070, Index=2, File: rain.nc)
                   (Tmin=      18383.0000 Tmax=      18386.0000)
                   (Min =  0.00000000E+00 Max =  0.00000000E+00)
   6120 18385 20:00:00  3.727685E-03  1.308896E+04  1.308896E+04  8.528187E+14
         (640,0360,30)  1.591710E-03  0.000000E+00  6.938436E+00  2.392272E+00
      DEF_HIS     - creating  history      file, Grid 01: /gscratch/macc/parker/LiveOcean_roms/output/cas6_v3_lo8b/f2020.05.01/ocean_his_0069.nc
      WRT_HIS     - wrote history     fields (Index=1,1) in record = 0000001
    GET_2DFLD   - surface u-wind component,                  t = 18385 21:59:59
                   (Rec=0000071, Index=1, File: Uwind.nc)
                   (Tmin=      18383.0000 Tmax=      18386.0000)
                   (Min = -1.03724346E+01 Max =  1.20322723E+01)
    GET_2DFLD   - surface v-wind component,                  t = 18385 21:59:59
                   (Rec=0000071, Index=1, File: Vwind.nc)
                   (Tmin=      18383.0000 Tmax=      18386.0000)
                   (Min = -8.68331337E+00 Max =  1.16807737E+01)
    GET_2DFLD   - surface air pressure,                      t = 18385 21:59:59
                   (Rec=0000071, Index=1, File: Pair.nc)
                   (Tmin=      18383.0000 Tmax=      18386.0000)
                   (Min =  7.64674194E+02 Max =  1.02336713E+03)
    GET_2DFLD   - solar shortwave radiation flux,            t = 18385 21:59:59
                   (Rec=0000071, Index=1, File: swrad.nc)
                   (Tmin=      18383.0000 Tmax=      18386.0000)
                   (Min =  2.44100721E-06 Max =  2.08037753E-04)
    GET_2DFLD   - downwelling longwave radiation flux,       t = 18385 21:59:59
                   (Rec=0000071, Index=1, File: lwrad_down.nc)
                   (Tmin=      18383.0000 Tmax=      18386.0000)
                   (Min =  4.40990090E-05 Max =  8.74242173E-05)
    GET_2DFLD   - surface air temperature,                   t = 18385 21:59:59
                   (Rec=0000071, Index=1, File: Tair.nc)
                   (Tmin=      18383.0000 Tmax=      18386.0000)
                   (Min = -6.86508179E+00 Max =  1.85976868E+01)
    GET_2DFLD   - surface air relative humidity,             t = 18385 21:59:59
                   (Rec=0000071, Index=1, File: Qair.nc)
                   (Tmin=      18383.0000 Tmax=      18386.0000)
                   (Min =  1.17247696E-01 Max =  1.05258858E+00)
    GET_2DFLD   - rain fall rate,                            t = 18385 21:59:59
                   (Rec=0000071, Index=1, File: rain.nc)
                   (Tmin=      18383.0000 Tmax=      18386.0000)
                   (Min =  0.00000000E+00 Max =  0.00000000E+00)
   6210 18385 21:00:00  3.402567E-03  1.308708E+04  1.308709E+04  8.526135E+14
         (640,0360,30)  1.592448E-03  0.000000E+00  6.938586E+00  2.779638E+00
      DEF_HIS     - creating  history      file, Grid 01: /gscratch/macc/parker/LiveOcean_roms/output/cas6_v3_lo8b/f2020.05.01/ocean_his_0070.nc
      WRT_HIS     - wrote history     fields (Index=1,1) in record = 0000001
    GET_2DFLD   - surface u-wind component,                  t = 18385 23:00:00
                   (Rec=0000072, Index=2, File: Uwind.nc)
                   (Tmin=      18383.0000 Tmax=      18386.0000)
                   (Min = -9.65131092E+00 Max =  1.10128174E+01)
    GET_2DFLD   - surface v-wind component,                  t = 18385 23:00:00
                   (Rec=0000072, Index=2, File: Vwind.nc)
                   (Tmin=      18383.0000 Tmax=      18386.0000)
                   (Min = -1.07371187E+01 Max =  1.16117210E+01)
    GET_2DFLD   - surface air pressure,                      t = 18385 23:00:00
                   (Rec=0000072, Index=2, File: Pair.nc)
                   (Tmin=      18383.0000 Tmax=      18386.0000)
                   (Min =  7.64432007E+02 Max =  1.02318060E+03)
    GET_2DFLD   - solar shortwave radiation flux,            t = 18385 23:00:00
                   (Rec=0000072, Index=2, File: swrad.nc)
                   (Tmin=      18383.0000 Tmax=      18386.0000)
                   (Min =  2.28136307E-06 Max =  1.74967679E-04)
    GET_2DFLD   - downwelling longwave radiation flux,       t = 18385 23:00:00
                   (Rec=0000072, Index=2, File: lwrad_down.nc)
                   (Tmin=      18383.0000 Tmax=      18386.0000)
                   (Min =  4.43209985E-05 Max =  8.75593957E-05)
    GET_2DFLD   - surface air temperature,                   t = 18385 23:00:00
                   (Rec=0000072, Index=2, File: Tair.nc)
                   (Tmin=      18383.0000 Tmax=      18386.0000)
                   (Min = -6.25097656E+00 Max =  1.69284363E+01)
    GET_2DFLD   - surface air relative humidity,             t = 18385 23:00:00
                   (Rec=0000072, Index=2, File: Qair.nc)
                   (Tmin=      18383.0000 Tmax=      18386.0000)
                   (Min =  2.26769142E-01 Max =  1.02894920E+00)
    GET_2DFLD   - rain fall rate,                            t = 18385 23:00:00
                   (Rec=0000072, Index=2, File: rain.nc)
                   (Tmin=      18383.0000 Tmax=      18386.0000)
                   (Min =  0.00000000E+00 Max =  0.00000000E+00)
   6300 18385 22:00:00  3.383391E-03  1.308513E+04  1.308513E+04  8.524035E+14
         (640,0360,30)  1.592083E-03  0.000000E+00  6.938516E+00  3.085667E+00
      DEF_HIS     - creating  history      file, Grid 01: /gscratch/macc/parker/LiveOcean_roms/output/cas6_v3_lo8b/f2020.05.01/ocean_his_0071.nc
      WRT_HIS     - wrote history     fields (Index=1,1) in record = 0000001
    GET_2DFLD   - surface u-wind component,                  t = 18386 00:00:00
                   (Rec=0000073, Index=1, File: Uwind.nc)
                   (Tmin=      18383.0000 Tmax=      18386.0000)
                   (Min = -8.29112148E+00 Max =  1.26541939E+01)
    GET_2DFLD   - surface v-wind component,                  t = 18386 00:00:00
                   (Rec=0000073, Index=1, File: Vwind.nc)
                   (Tmin=      18383.0000 Tmax=      18386.0000)
                   (Min = -9.42087269E+00 Max =  1.09451351E+01)
    GET_2DFLD   - surface air pressure,                      t = 18386 00:00:00
                   (Rec=0000073, Index=1, File: Pair.nc)
                   (Tmin=      18383.0000 Tmax=      18386.0000)
                   (Min =  7.64263062E+02 Max =  1.02325500E+03)
    GET_2DFLD   - solar shortwave radiation flux,            t = 18386 00:00:00
                   (Rec=0000073, Index=1, File: swrad.nc)
                   (Tmin=      18383.0000 Tmax=      18386.0000)
                   (Min =  1.67375568E-06 Max =  1.46731050E-04)
    GET_2DFLD   - downwelling longwave radiation flux,       t = 18386 00:00:00
                   (Rec=0000073, Index=1, File: lwrad_down.nc)
                   (Tmin=      18383.0000 Tmax=      18386.0000)
                   (Min =  4.37948390E-05 Max =  8.76340093E-05)
    GET_2DFLD   - surface air temperature,                   t = 18386 00:00:00
                   (Rec=0000073, Index=1, File: Tair.nc)
                   (Tmin=      18383.0000 Tmax=      18386.0000)
                   (Min = -7.68856812E+00 Max =  1.66954041E+01)
    GET_2DFLD   - surface air relative humidity,             t = 18386 00:00:00
                   (Rec=0000073, Index=1, File: Qair.nc)
                   (Tmin=      18383.0000 Tmax=      18386.0000)
                   (Min =  2.10531425E-01 Max =  1.04275909E+00)
    GET_2DFLD   - rain fall rate,                            t = 18386 00:00:00
                   (Rec=0000073, Index=1, File: rain.nc)
                   (Tmin=      18383.0000 Tmax=      18386.0000)
                   (Min =  0.00000000E+00 Max =  0.00000000E+00)
   6390 18385 23:00:00  3.708666E-03  1.308357E+04  1.308358E+04  8.522402E+14
         (640,0360,30)  1.590372E-03  0.000000E+00  6.938173E+00  2.992489E+00
      DEF_HIS     - creating  history      file, Grid 01: /gscratch/macc/parker/LiveOcean_roms/output/cas6_v3_lo8b/f2020.05.01/ocean_his_0072.nc
      WRT_HIS     - wrote history     fields (Index=1,1) in record = 0000001
   6480 18386 00:00:00  4.101336E-03  1.308280E+04  1.308280E+04  8.521651E+14
         (640,0360,30)  1.588213E-03  0.000000E+00  6.937738E+00  2.873743E+00
      DEF_HIS     - creating  history      file, Grid 01: /gscratch/macc/parker/LiveOcean_roms/output/cas6_v3_lo8b/f2020.05.01/ocean_his_0073.nc
      WRT_HIS     - wrote history     fields (Index=1,1) in record = 0000001

 Elapsed CPU time (seconds):

 Node   #  0 CPU:    6370.599
 Node   #  1 CPU:    6901.034
 Node   #  2 CPU:    6901.963
 Node   #  3 CPU:    6903.763
 Node   #  4 CPU:    6904.146
 Node   #  5 CPU:    6904.298
 Node   #  6 CPU:    6905.153
 Node   #  7 CPU:    6904.503
 Node   #  8 CPU:    6904.665
 Node   #  9 CPU:    6904.238
 Node   # 28 CPU:    6896.909
 Node   # 10 CPU:    6904.547
 Node   # 84 CPU:    6891.599
 Node   # 29 CPU:    6901.319
 Node   # 56 CPU:    6894.774
 Node   #112 CPU:    6889.619
 Node   # 11 CPU:    6903.868
 Node   # 85 CPU:    6893.806
 Node   # 30 CPU:    6902.087
 Node   # 57 CPU:    6900.765
 Node   #113 CPU:    6896.514
 Node   # 12 CPU:    6904.820
 Node   #140 CPU:    6889.486
 Node   #168 CPU:    6889.338
 Node   # 86 CPU:    6892.764
 Node   # 31 CPU:    6901.822
 Node   # 58 CPU:    6898.071
 Node   #114 CPU:    6895.465
 Node   # 13 CPU:    6862.916
 Node   # 87 CPU:    6896.295
 Node   # 32 CPU:    6904.455
 Node   # 59 CPU:    6902.709
 Node   #115 CPU:    6897.645
 Node   # 14 CPU:    6902.633
 Node   # 88 CPU:    6898.630
 Node   # 33 CPU:    6903.036
 Node   # 60 CPU:    6903.841
 Node   #116 CPU:    6899.886
 Node   # 15 CPU:    6902.869
 Node   #169 CPU:    6889.754
 Node   # 89 CPU:    6897.941
 Node   # 34 CPU:    6904.860
 Node   # 61 CPU:    6903.314
 Node   #117 CPU:    6899.728
 Node   # 16 CPU:    6904.387
 Node   #141 CPU:    6889.103
 Node   #170 CPU:    6889.582
 Node   # 90 CPU:    6901.505
 Node   # 35 CPU:    6904.655
 Node   # 62 CPU:    6903.656
 Node   #118 CPU:    6899.843
 Node   # 17 CPU:    6903.757
 Node   #142 CPU:    6889.757
 Node   #171 CPU:    6888.791
 Node   # 91 CPU:    6895.256
 Node   # 36 CPU:    6904.591
 Node   # 63 CPU:    6904.657
 Node   #119 CPU:    6901.577
 Node   # 18 CPU:    6903.695
 Node   #143 CPU:    6889.758
 Node   #172 CPU:    6889.790
 Node   # 92 CPU:    6898.034
 Node   # 37 CPU:    6904.299
 Node   # 64 CPU:    6904.504
 Node   #120 CPU:    6888.864
 Node   # 19 CPU:    6901.619
 Node   #144 CPU:    6889.753
 Node   #173 CPU:    6889.790
 Node   # 93 CPU:    6898.781
 Node   # 38 CPU:    6904.920
 Node   # 65 CPU:    6836.551
 Node   #121 CPU:    6886.740
 Node   # 20 CPU:    6827.519
 Node   #145 CPU:    6889.751
 Node   #174 CPU:    6889.778
 Node   # 94 CPU:    6894.565
 Node   # 39 CPU:    6886.498
 Node   # 66 CPU:    6897.568
 Node   #122 CPU:    6900.257
 Node   # 21 CPU:    6900.372
 Node   #146 CPU:    6889.755
 Node   #175 CPU:    6889.794
 Node   # 95 CPU:    6898.542
 Node   # 40 CPU:    6904.769
 Node   # 67 CPU:    6895.787
 Node   #123 CPU:    6894.475
 Node   # 22 CPU:    6905.807
 Node   #147 CPU:    6889.764
 Node   #176 CPU:    6889.799
 Node   # 96 CPU:    6899.304
 Node   # 41 CPU:    6899.017
 Node   # 68 CPU:    6900.154
 Node   #124 CPU:    6901.326
 Node   # 23 CPU:    6905.105
 Node   #148 CPU:    6888.774
 Node   #177 CPU:    6889.797
 Node   # 97 CPU:    6892.392
 Node   # 42 CPU:    6903.237
 Node   # 69 CPU:    6904.042
 Node   #125 CPU:    6892.389
 Node   # 24 CPU:    6902.383
 Node   #149 CPU:    6889.774
 Node   #178 CPU:    6889.779
 Node   # 98 CPU:    6899.565
 Node   # 43 CPU:    6903.259
 Node   # 70 CPU:    6902.269
 Node   #126 CPU:    6900.291
 Node   # 25 CPU:    6904.109
 Node   #150 CPU:    6889.761
 Node   #179 CPU:    6889.766
 Node   # 99 CPU:    6899.661
 Node   # 44 CPU:    6903.520
 Node   # 71 CPU:    6903.712
 Node   #127 CPU:    6899.900
 Node   # 26 CPU:    6906.136
 Node   #151 CPU:    6889.760
 Node   #180 CPU:    6889.800
 Node   #100 CPU:    6901.139
 Node   # 45 CPU:    6904.776
 Node   # 72 CPU:    6903.100
 Node   #128 CPU:    6900.845
 Node   # 27 CPU:    6905.333
 Node   #152 CPU:    6889.747
 Node   #181 CPU:    6889.823
 Node   #101 CPU:    6900.624
 Node   # 46 CPU:    6905.007
 Node   # 73 CPU:    6904.049
 Node   #129 CPU:    6900.641
 Node   #153 CPU:    6889.803
 Node   #182 CPU:    6889.781
 Node   #102 CPU:    6902.086
 Node   # 47 CPU:    6843.068
 Node   # 74 CPU:    6904.152
 Node   #130 CPU:    6901.756
 Node   #154 CPU:    6889.765
 Node   #183 CPU:    6889.808
 Node   #103 CPU:    6893.006
 Node   # 48 CPU:    6904.700
 Node   # 75 CPU:    6903.642
 Node   #131 CPU:    6898.521
 Node   #155 CPU:    6889.765
 Node   #184 CPU:    6889.830
 Node   #104 CPU:    6903.213
 Node   # 49 CPU:    6901.148
 Node   # 76 CPU:    6905.415
 Node   #132 CPU:    6904.005
 Node   #156 CPU:    6889.780
 Node   #185 CPU:    6889.820
 Node   #105 CPU:    6903.461
 Node   # 50 CPU:    6905.621
 Node   # 77 CPU:    6904.250
 Node   #133 CPU:    6904.576
 Node   #157 CPU:    6889.791
 Node   #186 CPU:    6889.820
 Node   #106 CPU:    6903.904
 Node   # 51 CPU:    6900.487
 Node   # 78 CPU:    6904.447
 Node   #134 CPU:    6903.792
 Node   #158 CPU:    6889.812
 Node   #187 CPU:    6889.826
 Node   #107 CPU:    6899.088
 Node   # 52 CPU:    6905.801
 Node   # 79 CPU:    6904.989
 Node   #135 CPU:    6902.842
 Node   #159 CPU:    6889.795
 Node   #188 CPU:    6889.823
 Node   #108 CPU:    6902.587
 Node   # 53 CPU:    6905.886
 Node   # 80 CPU:    6899.272
 Node   #136 CPU:    6902.344
 Node   #160 CPU:    6889.799
 Node   #189 CPU:    6889.830
 Node   #109 CPU:    6902.819
 Node   # 54 CPU:    6904.846
 Node   # 81 CPU:    6904.589
 Node   #137 CPU:    6904.449
 Node   #161 CPU:    6889.795
 Node   #190 CPU:    6889.818
 Node   #110 CPU:    6904.098
 Node   # 55 CPU:    6905.516
 Node   # 82 CPU:    6904.441
 Node   #138 CPU:    6903.510
 Node   #162 CPU:    6889.799
 Node   #191 CPU:    6889.824
 Node   #111 CPU:    6904.721
 Node   # 83 CPU:    6904.052
 Node   #139 CPU:    6903.733
 Node   #163 CPU:    6889.743
 Node   #192 CPU:    6889.821
 Node   #164 CPU:    6889.790
 Node   #193 CPU:    6889.817
 Node   #165 CPU:    6889.792
 Node   #194 CPU:    6889.826
 Node   #166 CPU:    6889.792
 Node   #195 CPU:    6889.831
 Node   #167 CPU:    6889.773
 Total:           1351248.625

 Nonlinear model elapsed time profile, Grid: 01

  Allocation and array initialization ..............        46.995  ( 0.0035 %)
  Ocean state initialization .......................         9.862  ( 0.0007 %)
  Reading of input data ............................     25509.651  ( 1.8879 %)
  Processing of input data .........................    127594.227  ( 9.4427 %)
  Computation of vertical boundary conditions ......      3934.315  ( 0.2912 %)
  Computation of global information integrals ......        85.402  ( 0.0063 %)
  Writing of output data ...........................    201912.025  (14.9426 %)
  Model 2D kernel ..................................     58045.918  ( 4.2957 %)
  Tidal forcing ....................................     16270.003  ( 1.2041 %)
  2D/3D coupling, vertical metrics .................     10292.037  ( 0.7617 %)
  Omega vertical velocity ..........................      5264.941  ( 0.3896 %)
  Equation of state for seawater ...................     14349.159  ( 1.0619 %)
  Biological module, source/sink terms .............     31520.124  ( 2.3327 %)
  Atmosphere-Ocean bulk flux parameterization ......     27948.557  ( 2.0684 %)
  GLS vertical mixing parameterization .............    117004.403  ( 8.6590 %)
  3D equations right-side terms ....................     14682.005  ( 1.0866 %)
  3D equations predictor step ......................     99594.606  ( 7.3706 %)
  Pressure gradient ................................      5709.867  ( 0.4226 %)
  Harmonic mixing of tracers, geopotentials ........     36480.418  ( 2.6998 %)
  Corrector time-step for 3D momentum ..............     14852.645  ( 1.0992 %)
  Corrector time-step for tracers ..................    531058.055  (39.3013 %)
                                              Total:   1342165.212   99.3278

 Nonlinear model message Passage profile, Grid: 01

  Message Passage: 2D halo exchanges ...............    148794.389  (11.0116 %)
  Message Passage: 3D halo exchanges ...............     38607.814  ( 2.8572 %)
  Message Passage: 4D halo exchanges ...............    146873.363  (10.8695 %)
  Message Passage: data broadcast ..................    170527.506  (12.6200 %)
  Message Passage: data reduction ..................        44.708  ( 0.0033 %)
  Message Passage: data gathering ..................     34267.132  ( 2.5360 %)
  Message Passage: data scattering..................      6350.764  ( 0.4700 %)
  Message Passage: boundary data gathering .........      9881.161  ( 0.7313 %)
                                              Total:    555346.837   41.0988

 All percentages are with respect to total time =      1351248.625


 ROMS/TOMS - Output NetCDF summary for Grid 01:
             number of time records written in HISTORY file = 00000001

 Analytical header files used:

     ROMS/Functionals/ana_btflux.h
     ROMS/Functionals/ana_stflux.h

 Biology model header files used:

     ROMS/Nonlinear/Biology/npzd2o_banas.h

 ROMS/TOMS: DONE... Friday - May 1, 2020 -  4:58:28 AM
